<?xml version="1.0" encoding="UTF-8"?>

<!-- generated on Fri Sep 18 03:06:16 2020 by Eclipse SUMO duarouter Version 1.6.0
<configuration xmlns:xsi="http://www.w3.org/2001/XMLSchema-instance" xsi:noNamespaceSchemaLocation="http://sumo.dlr.de/xsd/duarouterConfiguration.xsd">

    <input>
        <net-file value="dataset_public/all_loop/all_loop_b/map.net.xml"/>
        <route-files value="/tmp/tmp_g324oqy/trips.trips.xml"/>
    </input>

    <output>
        <output-file value="dataset_public/all_loop/all_loop_b/traffic/30_patient_car.rou.xml"/>
        <alternatives-output value="dataset_public/all_loop/all_loop_b/traffic/30_patient_car.rou.alt.xml"/>
    </output>

    <processing>
        <unsorted-input value="true"/>
        <repair value="true"/>
    </processing>

    <report>
        <error-log value="/tmp/smarts/_duarouter_routing/traffic/30_patient_car.log"/>
        <no-step-log value="true"/>
    </report>

    <random_number>
        <seed value="42"/>
    </random_number>

</configuration>
-->

<routes xmlns:xsi="http://www.w3.org/2001/XMLSchema-instance" xsi:noNamespaceSchemaLocation="http://sumo.dlr.de/xsd/routes_file.xsd">
    <vType id="actor-car--6680338997203231751" minGap="2.50" speedFactor="normc(0.50,0.20,0.20,2.00)" vClass="passenger" impatience="0.50" lcCooperative="0.5" lcImpatience="0" jmDriveAfterYellowTime="1.0" accel="2.6" decel="4.5" sigma="0.5"/>
    <vehicle id="-flow-random-route-0812a6ca-777e-4876-b802-91070d61224c--6432356880891057006-16-0.0" type="actor-car--6680338997203231751" depart="0.00" departLane="0" departPos="55.81" departSpeed="max" arrivalLane="0" arrivalPos="32.44">
        <route edges="gneE129 -gneE135"/>
    </vehicle>
    <vehicle id="-flow-random-route-0c672518-ba88-488c-90b9-e0675ae22cd8--6432356880891057006-0-0.0" type="actor-car--6680338997203231751" depart="0.00" departLane="1" departPos="12.70" departSpeed="max" arrivalLane="1" arrivalPos="4.15">
        <route edges="edge-west-WS edge-south-SE edge-east-EN edge-north-NW edge-west-WS edge-south-SE edge-east-EN edge-north-NW edge-west-WS gneE143"/>
    </vehicle>
    <vehicle id="-flow-random-route-19d913b0-64ef-49ae-8265-0829546309ae--6432356880891057006-8-0.0" type="actor-car--6680338997203231751" depart="0.00" departLane="0" departPos="49.79" departSpeed="max" arrivalLane="0" arrivalPos="2.95">
        <route edges="gneE138 gneE104 gneE105 edge-west-WS edge-south-SE edge-east-EN"/>
    </vehicle>
    <vehicle id="-flow-random-route-23d3aa6a-d894-4b58-a4ef-7d2af48a757f--6432356880891057006-24-0.0" type="actor-car--6680338997203231751" depart="0.00" departLane="0" departPos="111.79" departSpeed="max" arrivalLane="0" arrivalPos="23.10">
        <route edges="-gneE137 -gneE129 -gneE125 -gneE114"/>
    </vehicle>
    <vehicle id="-flow-random-route-27b376ad-06d4-4adc-bee7-ea39f93710c3--6432356880891057006-4-0.0" type="actor-car--6680338997203231751" depart="0.00" departLane="1" departPos="64.96" departSpeed="max" arrivalLane="1" arrivalPos="39.29">
        <route edges="gneE100 gneE91 edge-east-EN edge-north-NW edge-west-WS edge-south-SE edge-east-EN edge-north-NW edge-west-WS gneE143"/>
    </vehicle>
    <vehicle id="-flow-random-route-29779b06-fabf-4ba2-af61-340fc1c8f16c--6432356880891057006-5-0.0" type="actor-car--6680338997203231751" depart="0.00" departLane="0" departPos="53.29" departSpeed="max" arrivalLane="0" arrivalPos="75.48">
        <route edges="gneE100 gneE91 edge-east-EN edge-north-NW edge-west-WS gneE143 gneE145 gneE146 gneE148 -gneE114"/>
    </vehicle>
    <vehicle id="-flow-random-route-2adf4961-3a4e-4dbe-8f88-373c63f8b746--6432356880891057006-2-0.0" type="actor-car--6680338997203231751" depart="0.00" departLane="0" departPos="1.73" departSpeed="max" arrivalLane="1" arrivalPos="7.27">
        <route edges="gneE91 edge-east-EN -gneE140 -gneE138 -gneE137 -gneE135 gneE110 gneE140 edge-north-NW edge-west-WS"/>
    </vehicle>
    <vehicle id="-flow-random-route-45449f31-8849-4f85-ba66-c22e6d827862--6432356880891057006-12-0.0" type="actor-car--6680338997203231751" depart="0.00" departLane="0" departPos="47.44" departSpeed="max" arrivalLane="0" arrivalPos="50.54">
        <route edges="gneE124 gneE124.71 gneE114 gneE125"/>
    </vehicle>
    <vehicle id="-flow-random-route-66e4b5bd-ea80-4432-b203-5027bc5f94e1--6432356880891057006-27-0.0" type="actor-car--6680338997203231751" depart="0.00" departLane="0" departPos="23.83" departSpeed="max" arrivalLane="0" arrivalPos="82.00">
        <route edges="-gneE124 gneE100 gneE91 edge-east-EN edge-north-NW edge-west-WS gneE143 gneE145 gneE146 gneE148"/>
    </vehicle>
    <vehicle id="-flow-random-route-6a176df7-681f-4338-9c5d-3993f1e5a8b3--6432356880891057006-19-0.0" type="actor-car--6680338997203231751" depart="0.00" departLane="0" departPos="11.08" departSpeed="max" arrivalLane="0" arrivalPos="43.83">
        <route edges="edge-north-NW edge-west-WS edge-south-SE edge-east-EN edge-north-NW edge-west-WS gneE143 gneE144 gneE124 gneE124.71"/>
    </vehicle>
    <vehicle id="-flow-random-route-8284f21f-6ae4-40c6-9bd4-d58886abdcf9--6432356880891057006-21-0.0" type="actor-car--6680338997203231751" depart="0.00" departLane="0" departPos="14.67" departSpeed="max" arrivalLane="1" arrivalPos="1.13">
        <route edges="gneE135 gneE137 gneE138 gneE140 edge-north-NW edge-west-WS gneE143 gneE144 gneE100 gneE91"/>
    </vehicle>
    <vehicle id="-flow-random-route-8462b874-d904-46fe-88a7-bac6c2311b49--6432356880891057006-7-0.0" type="actor-car--6680338997203231751" depart="0.00" departLane="0" departPos="21.09" departSpeed="max" arrivalLane="0" arrivalPos="54.14">
        <route edges="gneE114 gneE125 gneE129 gneE137 gneE138 -gneE110 gneE135 -gneE129 -gneE125 -gneE114"/>
    </vehicle>
    <vehicle id="-flow-random-route-8af86576-acec-4221-9a09-27c281fc4bac--6432356880891057006-29-0.0" type="actor-car--6680338997203231751" depart="0.00" departLane="1" departPos="35.27" departSpeed="max" arrivalLane="0" arrivalPos="77.10">
        <route edges="gneE104 gneE105 edge-west-WS gneE143 gneE145 gneE146 gneE161 gneE164 gneE124.71 gneE110"/>
    </vehicle>
    <vehicle id="-flow-random-route-91788bc6-e5ab-4ef0-a3ec-199a349fdbce--6432356880891057006-13-0.0" type="actor-car--6680338997203231751" depart="0.00" departLane="0" departPos="53.80" departSpeed="max" arrivalLane="0" arrivalPos="7.20">
        <route edges="gneE124.71 gneE135 gneE137 gneE138 gneE104 gneE105 edge-west-WS gneE143 gneE145 gneE146"/>
    </vehicle>
    <vehicle id="-flow-random-route-95f11dc7-7252-4329-9305-621ec093ac2e--6432356880891057006-28-0.0" type="actor-car--6680338997203231751" depart="0.00" departLane="1" departPos="33.12" departSpeed="max" arrivalLane="0" arrivalPos="19.84">
        <route edges="gneE143 gneE145 gneE146 gneE148 gneE125 gneE129 gneE137 gneE138 gneE104 gneE105"/>
    </vehicle>
    <vehicle id="-flow-random-route-9f08ebbf-3673-458f-a221-ccceafa56d9d--6432356880891057006-22-0.0" type="actor-car--6680338997203231751" depart="0.00" departLane="0" departPos="111.08" departSpeed="max" arrivalLane="0" arrivalPos="56.32">
        <route edges="gneE148 gneE125 gneE129 -gneE135 gneE114 gneE125 gneE129 -gneE135 -gneE124 gneE100"/>
    </vehicle>
    <vehicle id="-flow-random-route-ab15d7d0-dbb6-46cc-921a-12eb67743a1d--6432356880891057006-3-0.0" type="actor-car--6680338997203231751" depart="0.00" departLane="1" departPos="85.84" departSpeed="max" arrivalLane="0" arrivalPos="55.00">
        <route edges="gneE105 edge-west-WS gneE143 gneE144 gneE124 gneE124.71 gneE114 gneE125 gneE129 -gneE135"/>
    </vehicle>
    <vehicle id="-flow-random-route-af067453-ba85-4e2b-8340-9cb6595da39c--6432356880891057006-11-0.0" type="actor-car--6680338997203231751" depart="0.00" departLane="1" departPos="7.78" departSpeed="max" arrivalLane="1" arrivalPos="5.64">
        <route edges="gneE104 gneE105 edge-west-WS gneE143 gneE145 gneE146 gneE161 gneE162 gneE100 gneE91"/>
    </vehicle>
    <vehicle id="-flow-random-route-b0e305c1-2446-4a35-b3f6-1522adeaa7bf--6432356880891057006-17-0.0" type="actor-car--6680338997203231751" depart="0.00" departLane="0" departPos="30.81" departSpeed="max" arrivalLane="0" arrivalPos="9.50">
        <route edges="edge-south-SE edge-east-EN edge-north-NW edge-west-WS gneE143 gneE144 gneE124 gneE124.71 gneE110 gneE140"/>
    </vehicle>
    <vehicle id="-flow-random-route-b4aff90e-3eaa-4873-b19a-d5c092bc447a--6432356880891057006-6-0.0" type="actor-car--6680338997203231751" depart="0.00" departLane="0" departPos="15.02" departSpeed="max" arrivalLane="0" arrivalPos="21.79">
        <route edges="gneE145 gneE146 gneE161 gneE164 gneE124.71 gneE135 gneE137 gneE138 gneE104 gneE105"/>
    </vehicle>
    <vehicle id="-flow-random-route-b4dd6850-465e-4178-bd2c-27a0e7916983--6432356880891057006-15-0.0" type="actor-car--6680338997203231751" depart="0.00" departLane="0" departPos="6.07" departSpeed="max" arrivalLane="0" arrivalPos="91.54">
        <route edges="gneE144 gneE100 gneE91 edge-east-EN -gneE140 -gneE138 -gneE137 -gneE129 -gneE125 -gneE114"/>
    </vehicle>
    <vehicle id="-flow-random-route-baf3c9eb-7b26-4532-b770-f6b0e405134d--6432356880891057006-23-0.0" type="actor-car--6680338997203231751" depart="0.00" departLane="1" departPos="21.25" departSpeed="max" arrivalLane="1" arrivalPos="1.05">
        <route edges="gneE105 edge-west-WS gneE143 gneE145 gneE146 gneE148 -gneE114 -gneE124 gneE100 gneE91"/>
    </vehicle>
    <vehicle id="-flow-random-route-bf5d156f-df89-4afb-ac78-dbb5650e9202--6432356880891057006-25-0.0" type="actor-car--6680338997203231751" depart="0.00" departLane="0" departPos="67.76" departSpeed="max" arrivalLane="1" arrivalPos="29.97">
        <route edges="gneE138 -gneE110 gneE135 -gneE129 -gneE125 -gneE114 -gneE124 gneE100 gneE91 edge-east-EN"/>
    </vehicle>
    <vehicle id="-flow-random-route-d52db1a1-4d02-48e4-9111-2f98b6d9c627--6432356880891057006-14-0.0" type="actor-car--6680338997203231751" depart="0.00" departLane="0" departPos="80.10" departSpeed="max" arrivalLane="1" arrivalPos="29.06">
        <route edges="-gneE129 -gneE125 -gneE114 gneE135 gneE137 gneE138 gneE140 edge-north-NW edge-west-WS gneE143"/>
    </vehicle>
    <vehicle id="-flow-random-route-da71c590-2315-478f-a2cf-325684935bbe--6432356880891057006-9-0.0" type="actor-car--6680338997203231751" depart="0.00" departLane="0" departPos="31.41" departSpeed="max" arrivalLane="0" arrivalPos="63.93">
        <route edges="gneE145 gneE146 gneE148 gneE125 gneE129 gneE137 gneE138 gneE140 edge-north-NW edge-west-WS"/>
    </vehicle>
    <vehicle id="-flow-random-route-dd63de12-58ef-44c1-9934-0af3800aea4d--6432356880891057006-10-0.0" type="actor-car--6680338997203231751" depart="0.00" departLane="0" departPos="46.10" departSpeed="max" arrivalLane="1" arrivalPos="10.42">
        <route edges="gneE100 gneE91 edge-east-EN"/>
    </vehicle>
    <vehicle id="-flow-random-route-ead1682a-ed8f-4f9c-93f2-7c09467ff7a2--6432356880891057006-1-0.0" type="actor-car--6680338997203231751" depart="0.00" departLane="1" departPos="20.49" departSpeed="max" arrivalLane="0" arrivalPos="8.84">
        <route edges="gneE161 gneE162 gneE124 gneE124.71 gneE114 gneE125 gneE129 gneE137 gneE138 gneE140"/>
    </vehicle>
    <vehicle id="-flow-random-route-ead4dbd2-72a9-415f-bd95-ab7513d8c8e5--6432356880891057006-26-0.0" type="actor-car--6680338997203231751" depart="0.00" departLane="0" departPos="0.41" departSpeed="max" arrivalLane="0" arrivalPos="1.84">
        <route edges="gneE140 edge-north-NW edge-west-WS edge-south-SE edge-east-EN -gneE140 -gneE110 -gneE124 gneE100 gneE91"/>
    </vehicle>
    <vehicle id="-flow-random-route-ecb97ad7-0eff-4b95-8f1f-7264545225bf--6432356880891057006-20-0.0" type="actor-car--6680338997203231751" depart="0.00" departLane="0" departPos="21.79" departSpeed="max" arrivalLane="0" arrivalPos="66.21">
        <route edges="-gneE140 gneE104 gneE105 edge-west-WS gneE143 gneE145 gneE146 gneE148 -gneE114 -gneE124"/>
    </vehicle>
    <vehicle id="-flow-random-route-fb344e6e-1b9f-43f7-85a4-78725b0541f8--6432356880891057006-18-0.0" type="actor-car--6680338997203231751" depart="0.00" departLane="0" departPos="122.31" departSpeed="max" arrivalLane="0" arrivalPos="45.19">
        <route edges="-gneE110 gneE135 -gneE129 -gneE125 -gneE114 gneE135 gneE137 gneE138 gneE104 gneE105"/>
    </vehicle>
    <vehicle id="-flow-random-route-0812a6ca-777e-4876-b802-91070d61224c--6432356880891057006-16-0.1" type="actor-car--6680338997203231751" depart="120.00" departLane="0" departPos="55.81" departSpeed="max" arrivalLane="0" arrivalPos="32.44">
        <route edges="gneE129 -gneE135"/>
    </vehicle>
    <vehicle id="-flow-random-route-0c672518-ba88-488c-90b9-e0675ae22cd8--6432356880891057006-0-0.1" type="actor-car--6680338997203231751" depart="120.00" departLane="1" departPos="12.70" departSpeed="max" arrivalLane="1" arrivalPos="4.15">
        <route edges="edge-west-WS edge-south-SE edge-east-EN edge-north-NW edge-west-WS edge-south-SE edge-east-EN edge-north-NW edge-west-WS gneE143"/>
    </vehicle>
    <vehicle id="-flow-random-route-19d913b0-64ef-49ae-8265-0829546309ae--6432356880891057006-8-0.1" type="actor-car--6680338997203231751" depart="120.00" departLane="0" departPos="49.79" departSpeed="max" arrivalLane="0" arrivalPos="2.95">
        <route edges="gneE138 gneE104 gneE105 edge-west-WS edge-south-SE edge-east-EN"/>
    </vehicle>
    <vehicle id="-flow-random-route-23d3aa6a-d894-4b58-a4ef-7d2af48a757f--6432356880891057006-24-0.1" type="actor-car--6680338997203231751" depart="120.00" departLane="0" departPos="111.79" departSpeed="max" arrivalLane="0" arrivalPos="23.10">
        <route edges="-gneE137 -gneE129 -gneE125 -gneE114"/>
    </vehicle>
    <vehicle id="-flow-random-route-27b376ad-06d4-4adc-bee7-ea39f93710c3--6432356880891057006-4-0.1" type="actor-car--6680338997203231751" depart="120.00" departLane="1" departPos="64.96" departSpeed="max" arrivalLane="1" arrivalPos="39.29">
        <route edges="gneE100 gneE91 edge-east-EN edge-north-NW edge-west-WS edge-south-SE edge-east-EN edge-north-NW edge-west-WS gneE143"/>
    </vehicle>
    <vehicle id="-flow-random-route-29779b06-fabf-4ba2-af61-340fc1c8f16c--6432356880891057006-5-0.1" type="actor-car--6680338997203231751" depart="120.00" departLane="0" departPos="53.29" departSpeed="max" arrivalLane="0" arrivalPos="75.48">
        <route edges="gneE100 gneE91 edge-east-EN edge-north-NW edge-west-WS gneE143 gneE145 gneE146 gneE148 -gneE114"/>
    </vehicle>
    <vehicle id="-flow-random-route-2adf4961-3a4e-4dbe-8f88-373c63f8b746--6432356880891057006-2-0.1" type="actor-car--6680338997203231751" depart="120.00" departLane="0" departPos="1.73" departSpeed="max" arrivalLane="1" arrivalPos="7.27">
        <route edges="gneE91 edge-east-EN -gneE140 -gneE138 -gneE137 -gneE135 gneE110 gneE140 edge-north-NW edge-west-WS"/>
    </vehicle>
    <vehicle id="-flow-random-route-45449f31-8849-4f85-ba66-c22e6d827862--6432356880891057006-12-0.1" type="actor-car--6680338997203231751" depart="120.00" departLane="0" departPos="47.44" departSpeed="max" arrivalLane="0" arrivalPos="50.54">
        <route edges="gneE124 gneE124.71 gneE114 gneE125"/>
    </vehicle>
    <vehicle id="-flow-random-route-66e4b5bd-ea80-4432-b203-5027bc5f94e1--6432356880891057006-27-0.1" type="actor-car--6680338997203231751" depart="120.00" departLane="0" departPos="23.83" departSpeed="max" arrivalLane="0" arrivalPos="82.00">
        <route edges="-gneE124 gneE100 gneE91 edge-east-EN edge-north-NW edge-west-WS gneE143 gneE145 gneE146 gneE148"/>
    </vehicle>
    <vehicle id="-flow-random-route-6a176df7-681f-4338-9c5d-3993f1e5a8b3--6432356880891057006-19-0.1" type="actor-car--6680338997203231751" depart="120.00" departLane="0" departPos="11.08" departSpeed="max" arrivalLane="0" arrivalPos="43.83">
        <route edges="edge-north-NW edge-west-WS edge-south-SE edge-east-EN edge-north-NW edge-west-WS gneE143 gneE144 gneE124 gneE124.71"/>
    </vehicle>
    <vehicle id="-flow-random-route-8284f21f-6ae4-40c6-9bd4-d58886abdcf9--6432356880891057006-21-0.1" type="actor-car--6680338997203231751" depart="120.00" departLane="0" departPos="14.67" departSpeed="max" arrivalLane="1" arrivalPos="1.13">
        <route edges="gneE135 gneE137 gneE138 gneE140 edge-north-NW edge-west-WS gneE143 gneE144 gneE100 gneE91"/>
    </vehicle>
    <vehicle id="-flow-random-route-8462b874-d904-46fe-88a7-bac6c2311b49--6432356880891057006-7-0.1" type="actor-car--6680338997203231751" depart="120.00" departLane="0" departPos="21.09" departSpeed="max" arrivalLane="0" arrivalPos="54.14">
        <route edges="gneE114 gneE125 gneE129 gneE137 gneE138 -gneE110 gneE135 -gneE129 -gneE125 -gneE114"/>
    </vehicle>
    <vehicle id="-flow-random-route-8af86576-acec-4221-9a09-27c281fc4bac--6432356880891057006-29-0.1" type="actor-car--6680338997203231751" depart="120.00" departLane="1" departPos="35.27" departSpeed="max" arrivalLane="0" arrivalPos="77.10">
        <route edges="gneE104 gneE105 edge-west-WS gneE143 gneE145 gneE146 gneE161 gneE164 gneE124.71 gneE110"/>
    </vehicle>
    <vehicle id="-flow-random-route-91788bc6-e5ab-4ef0-a3ec-199a349fdbce--6432356880891057006-13-0.1" type="actor-car--6680338997203231751" depart="120.00" departLane="0" departPos="53.80" departSpeed="max" arrivalLane="0" arrivalPos="7.20">
        <route edges="gneE124.71 gneE135 gneE137 gneE138 gneE104 gneE105 edge-west-WS gneE143 gneE145 gneE146"/>
    </vehicle>
    <vehicle id="-flow-random-route-95f11dc7-7252-4329-9305-621ec093ac2e--6432356880891057006-28-0.1" type="actor-car--6680338997203231751" depart="120.00" departLane="1" departPos="33.12" departSpeed="max" arrivalLane="0" arrivalPos="19.84">
        <route edges="gneE143 gneE145 gneE146 gneE148 gneE125 gneE129 gneE137 gneE138 gneE104 gneE105"/>
    </vehicle>
    <vehicle id="-flow-random-route-9f08ebbf-3673-458f-a221-ccceafa56d9d--6432356880891057006-22-0.1" type="actor-car--6680338997203231751" depart="120.00" departLane="0" departPos="111.08" departSpeed="max" arrivalLane="0" arrivalPos="56.32">
        <route edges="gneE148 gneE125 gneE129 -gneE135 gneE114 gneE125 gneE129 -gneE135 -gneE124 gneE100"/>
    </vehicle>
    <vehicle id="-flow-random-route-ab15d7d0-dbb6-46cc-921a-12eb67743a1d--6432356880891057006-3-0.1" type="actor-car--6680338997203231751" depart="120.00" departLane="1" departPos="85.84" departSpeed="max" arrivalLane="0" arrivalPos="55.00">
        <route edges="gneE105 edge-west-WS gneE143 gneE144 gneE124 gneE124.71 gneE114 gneE125 gneE129 -gneE135"/>
    </vehicle>
    <vehicle id="-flow-random-route-af067453-ba85-4e2b-8340-9cb6595da39c--6432356880891057006-11-0.1" type="actor-car--6680338997203231751" depart="120.00" departLane="1" departPos="7.78" departSpeed="max" arrivalLane="1" arrivalPos="5.64">
        <route edges="gneE104 gneE105 edge-west-WS gneE143 gneE145 gneE146 gneE161 gneE162 gneE100 gneE91"/>
    </vehicle>
    <vehicle id="-flow-random-route-b0e305c1-2446-4a35-b3f6-1522adeaa7bf--6432356880891057006-17-0.1" type="actor-car--6680338997203231751" depart="120.00" departLane="0" departPos="30.81" departSpeed="max" arrivalLane="0" arrivalPos="9.50">
        <route edges="edge-south-SE edge-east-EN edge-north-NW edge-west-WS gneE143 gneE144 gneE124 gneE124.71 gneE110 gneE140"/>
    </vehicle>
    <vehicle id="-flow-random-route-b4aff90e-3eaa-4873-b19a-d5c092bc447a--6432356880891057006-6-0.1" type="actor-car--6680338997203231751" depart="120.00" departLane="0" departPos="15.02" departSpeed="max" arrivalLane="0" arrivalPos="21.79">
        <route edges="gneE145 gneE146 gneE161 gneE164 gneE124.71 gneE135 gneE137 gneE138 gneE104 gneE105"/>
    </vehicle>
    <vehicle id="-flow-random-route-b4dd6850-465e-4178-bd2c-27a0e7916983--6432356880891057006-15-0.1" type="actor-car--6680338997203231751" depart="120.00" departLane="0" departPos="6.07" departSpeed="max" arrivalLane="0" arrivalPos="91.54">
        <route edges="gneE144 gneE100 gneE91 edge-east-EN -gneE140 -gneE138 -gneE137 -gneE129 -gneE125 -gneE114"/>
    </vehicle>
    <vehicle id="-flow-random-route-baf3c9eb-7b26-4532-b770-f6b0e405134d--6432356880891057006-23-0.1" type="actor-car--6680338997203231751" depart="120.00" departLane="1" departPos="21.25" departSpeed="max" arrivalLane="1" arrivalPos="1.05">
        <route edges="gneE105 edge-west-WS gneE143 gneE145 gneE146 gneE148 -gneE114 -gneE124 gneE100 gneE91"/>
    </vehicle>
    <vehicle id="-flow-random-route-bf5d156f-df89-4afb-ac78-dbb5650e9202--6432356880891057006-25-0.1" type="actor-car--6680338997203231751" depart="120.00" departLane="0" departPos="67.76" departSpeed="max" arrivalLane="1" arrivalPos="29.97">
        <route edges="gneE138 -gneE110 gneE135 -gneE129 -gneE125 -gneE114 -gneE124 gneE100 gneE91 edge-east-EN"/>
    </vehicle>
    <vehicle id="-flow-random-route-d52db1a1-4d02-48e4-9111-2f98b6d9c627--6432356880891057006-14-0.1" type="actor-car--6680338997203231751" depart="120.00" departLane="0" departPos="80.10" departSpeed="max" arrivalLane="1" arrivalPos="29.06">
        <route edges="-gneE129 -gneE125 -gneE114 gneE135 gneE137 gneE138 gneE140 edge-north-NW edge-west-WS gneE143"/>
    </vehicle>
    <vehicle id="-flow-random-route-da71c590-2315-478f-a2cf-325684935bbe--6432356880891057006-9-0.1" type="actor-car--6680338997203231751" depart="120.00" departLane="0" departPos="31.41" departSpeed="max" arrivalLane="0" arrivalPos="63.93">
        <route edges="gneE145 gneE146 gneE148 gneE125 gneE129 gneE137 gneE138 gneE140 edge-north-NW edge-west-WS"/>
    </vehicle>
    <vehicle id="-flow-random-route-dd63de12-58ef-44c1-9934-0af3800aea4d--6432356880891057006-10-0.1" type="actor-car--6680338997203231751" depart="120.00" departLane="0" departPos="46.10" departSpeed="max" arrivalLane="1" arrivalPos="10.42">
        <route edges="gneE100 gneE91 edge-east-EN"/>
    </vehicle>
    <vehicle id="-flow-random-route-ead1682a-ed8f-4f9c-93f2-7c09467ff7a2--6432356880891057006-1-0.1" type="actor-car--6680338997203231751" depart="120.00" departLane="1" departPos="20.49" departSpeed="max" arrivalLane="0" arrivalPos="8.84">
        <route edges="gneE161 gneE162 gneE124 gneE124.71 gneE114 gneE125 gneE129 gneE137 gneE138 gneE140"/>
    </vehicle>
    <vehicle id="-flow-random-route-ead4dbd2-72a9-415f-bd95-ab7513d8c8e5--6432356880891057006-26-0.1" type="actor-car--6680338997203231751" depart="120.00" departLane="0" departPos="0.41" departSpeed="max" arrivalLane="0" arrivalPos="1.84">
        <route edges="gneE140 edge-north-NW edge-west-WS edge-south-SE edge-east-EN -gneE140 -gneE110 -gneE124 gneE100 gneE91"/>
    </vehicle>
    <vehicle id="-flow-random-route-ecb97ad7-0eff-4b95-8f1f-7264545225bf--6432356880891057006-20-0.1" type="actor-car--6680338997203231751" depart="120.00" departLane="0" departPos="21.79" departSpeed="max" arrivalLane="0" arrivalPos="66.21">
        <route edges="-gneE140 gneE104 gneE105 edge-west-WS gneE143 gneE145 gneE146 gneE148 -gneE114 -gneE124"/>
    </vehicle>
    <vehicle id="-flow-random-route-fb344e6e-1b9f-43f7-85a4-78725b0541f8--6432356880891057006-18-0.1" type="actor-car--6680338997203231751" depart="120.00" departLane="0" departPos="122.31" departSpeed="max" arrivalLane="0" arrivalPos="45.19">
        <route edges="-gneE110 gneE135 -gneE129 -gneE125 -gneE114 gneE135 gneE137 gneE138 gneE104 gneE105"/>
    </vehicle>
    <vehicle id="-flow-random-route-0812a6ca-777e-4876-b802-91070d61224c--6432356880891057006-16-0.2" type="actor-car--6680338997203231751" depart="240.00" departLane="0" departPos="55.81" departSpeed="max" arrivalLane="0" arrivalPos="32.44">
        <route edges="gneE129 -gneE135"/>
    </vehicle>
    <vehicle id="-flow-random-route-0c672518-ba88-488c-90b9-e0675ae22cd8--6432356880891057006-0-0.2" type="actor-car--6680338997203231751" depart="240.00" departLane="1" departPos="12.70" departSpeed="max" arrivalLane="1" arrivalPos="4.15">
        <route edges="edge-west-WS edge-south-SE edge-east-EN edge-north-NW edge-west-WS edge-south-SE edge-east-EN edge-north-NW edge-west-WS gneE143"/>
    </vehicle>
    <vehicle id="-flow-random-route-19d913b0-64ef-49ae-8265-0829546309ae--6432356880891057006-8-0.2" type="actor-car--6680338997203231751" depart="240.00" departLane="0" departPos="49.79" departSpeed="max" arrivalLane="0" arrivalPos="2.95">
        <route edges="gneE138 gneE104 gneE105 edge-west-WS edge-south-SE edge-east-EN"/>
    </vehicle>
    <vehicle id="-flow-random-route-23d3aa6a-d894-4b58-a4ef-7d2af48a757f--6432356880891057006-24-0.2" type="actor-car--6680338997203231751" depart="240.00" departLane="0" departPos="111.79" departSpeed="max" arrivalLane="0" arrivalPos="23.10">
        <route edges="-gneE137 -gneE129 -gneE125 -gneE114"/>
    </vehicle>
    <vehicle id="-flow-random-route-27b376ad-06d4-4adc-bee7-ea39f93710c3--6432356880891057006-4-0.2" type="actor-car--6680338997203231751" depart="240.00" departLane="1" departPos="64.96" departSpeed="max" arrivalLane="1" arrivalPos="39.29">
        <route edges="gneE100 gneE91 edge-east-EN edge-north-NW edge-west-WS edge-south-SE edge-east-EN edge-north-NW edge-west-WS gneE143"/>
    </vehicle>
    <vehicle id="-flow-random-route-29779b06-fabf-4ba2-af61-340fc1c8f16c--6432356880891057006-5-0.2" type="actor-car--6680338997203231751" depart="240.00" departLane="0" departPos="53.29" departSpeed="max" arrivalLane="0" arrivalPos="75.48">
        <route edges="gneE100 gneE91 edge-east-EN edge-north-NW edge-west-WS gneE143 gneE145 gneE146 gneE148 -gneE114"/>
    </vehicle>
    <vehicle id="-flow-random-route-2adf4961-3a4e-4dbe-8f88-373c63f8b746--6432356880891057006-2-0.2" type="actor-car--6680338997203231751" depart="240.00" departLane="0" departPos="1.73" departSpeed="max" arrivalLane="1" arrivalPos="7.27">
        <route edges="gneE91 edge-east-EN -gneE140 -gneE138 -gneE137 -gneE135 gneE110 gneE140 edge-north-NW edge-west-WS"/>
    </vehicle>
    <vehicle id="-flow-random-route-45449f31-8849-4f85-ba66-c22e6d827862--6432356880891057006-12-0.2" type="actor-car--6680338997203231751" depart="240.00" departLane="0" departPos="47.44" departSpeed="max" arrivalLane="0" arrivalPos="50.54">
        <route edges="gneE124 gneE124.71 gneE114 gneE125"/>
    </vehicle>
    <vehicle id="-flow-random-route-66e4b5bd-ea80-4432-b203-5027bc5f94e1--6432356880891057006-27-0.2" type="actor-car--6680338997203231751" depart="240.00" departLane="0" departPos="23.83" departSpeed="max" arrivalLane="0" arrivalPos="82.00">
        <route edges="-gneE124 gneE100 gneE91 edge-east-EN edge-north-NW edge-west-WS gneE143 gneE145 gneE146 gneE148"/>
    </vehicle>
    <vehicle id="-flow-random-route-6a176df7-681f-4338-9c5d-3993f1e5a8b3--6432356880891057006-19-0.2" type="actor-car--6680338997203231751" depart="240.00" departLane="0" departPos="11.08" departSpeed="max" arrivalLane="0" arrivalPos="43.83">
        <route edges="edge-north-NW edge-west-WS edge-south-SE edge-east-EN edge-north-NW edge-west-WS gneE143 gneE144 gneE124 gneE124.71"/>
    </vehicle>
    <vehicle id="-flow-random-route-8284f21f-6ae4-40c6-9bd4-d58886abdcf9--6432356880891057006-21-0.2" type="actor-car--6680338997203231751" depart="240.00" departLane="0" departPos="14.67" departSpeed="max" arrivalLane="1" arrivalPos="1.13">
        <route edges="gneE135 gneE137 gneE138 gneE140 edge-north-NW edge-west-WS gneE143 gneE144 gneE100 gneE91"/>
    </vehicle>
    <vehicle id="-flow-random-route-8462b874-d904-46fe-88a7-bac6c2311b49--6432356880891057006-7-0.2" type="actor-car--6680338997203231751" depart="240.00" departLane="0" departPos="21.09" departSpeed="max" arrivalLane="0" arrivalPos="54.14">
        <route edges="gneE114 gneE125 gneE129 gneE137 gneE138 -gneE110 gneE135 -gneE129 -gneE125 -gneE114"/>
    </vehicle>
    <vehicle id="-flow-random-route-8af86576-acec-4221-9a09-27c281fc4bac--6432356880891057006-29-0.2" type="actor-car--6680338997203231751" depart="240.00" departLane="1" departPos="35.27" departSpeed="max" arrivalLane="0" arrivalPos="77.10">
        <route edges="gneE104 gneE105 edge-west-WS gneE143 gneE145 gneE146 gneE161 gneE164 gneE124.71 gneE110"/>
    </vehicle>
    <vehicle id="-flow-random-route-91788bc6-e5ab-4ef0-a3ec-199a349fdbce--6432356880891057006-13-0.2" type="actor-car--6680338997203231751" depart="240.00" departLane="0" departPos="53.80" departSpeed="max" arrivalLane="0" arrivalPos="7.20">
        <route edges="gneE124.71 gneE135 gneE137 gneE138 gneE104 gneE105 edge-west-WS gneE143 gneE145 gneE146"/>
    </vehicle>
    <vehicle id="-flow-random-route-95f11dc7-7252-4329-9305-621ec093ac2e--6432356880891057006-28-0.2" type="actor-car--6680338997203231751" depart="240.00" departLane="1" departPos="33.12" departSpeed="max" arrivalLane="0" arrivalPos="19.84">
        <route edges="gneE143 gneE145 gneE146 gneE148 gneE125 gneE129 gneE137 gneE138 gneE104 gneE105"/>
    </vehicle>
    <vehicle id="-flow-random-route-9f08ebbf-3673-458f-a221-ccceafa56d9d--6432356880891057006-22-0.2" type="actor-car--6680338997203231751" depart="240.00" departLane="0" departPos="111.08" departSpeed="max" arrivalLane="0" arrivalPos="56.32">
        <route edges="gneE148 gneE125 gneE129 -gneE135 gneE114 gneE125 gneE129 -gneE135 -gneE124 gneE100"/>
    </vehicle>
    <vehicle id="-flow-random-route-ab15d7d0-dbb6-46cc-921a-12eb67743a1d--6432356880891057006-3-0.2" type="actor-car--6680338997203231751" depart="240.00" departLane="1" departPos="85.84" departSpeed="max" arrivalLane="0" arrivalPos="55.00">
        <route edges="gneE105 edge-west-WS gneE143 gneE144 gneE124 gneE124.71 gneE114 gneE125 gneE129 -gneE135"/>
    </vehicle>
    <vehicle id="-flow-random-route-af067453-ba85-4e2b-8340-9cb6595da39c--6432356880891057006-11-0.2" type="actor-car--6680338997203231751" depart="240.00" departLane="1" departPos="7.78" departSpeed="max" arrivalLane="1" arrivalPos="5.64">
        <route edges="gneE104 gneE105 edge-west-WS gneE143 gneE145 gneE146 gneE161 gneE162 gneE100 gneE91"/>
    </vehicle>