<?xml version="1.0" encoding="UTF-8"?>

<!-- generated on Sun Aug 16 11:47:21 2020 by Eclipse SUMO duarouter Version 1.6.0
<configuration xmlns:xsi="http://www.w3.org/2001/XMLSchema-instance" xsi:noNamespaceSchemaLocation="http://sumo.dlr.de/xsd/duarouterConfiguration.xsd">

    <input>
        <net-file value="dataset_public/mixed_loop/roundabout_merge_a/map.net.xml"/>
        <route-files value="/tmp/tmpl8bc7el4/trips.trips.xml"/>
    </input>

    <output>
        <output-file value="dataset_public/mixed_loop/roundabout_merge_a/traffic/30_patient_car.rou.xml"/>
        <alternatives-output value="dataset_public/mixed_loop/roundabout_merge_a/traffic/30_patient_car.rou.alt.xml"/>
    </output>

    <processing>
        <unsorted-input value="true"/>
        <repair value="true"/>
    </processing>

    <report>
        <error-log value="/tmp/smarts/_duarouter_routing/traffic/30_patient_car.log"/>
        <no-step-log value="true"/>
    </report>

    <random_number>
        <seed value="42"/>
    </random_number>

</configuration>
-->

<routes xmlns:xsi="http://www.w3.org/2001/XMLSchema-instance" xsi:noNamespaceSchemaLocation="http://sumo.dlr.de/xsd/routes_file.xsd">
    <vType id="actor-car-2764321428367610765" minGap="2.50" speedFactor="normc(0.50,0.20,0.20,2.00)" vClass="passenger" impatience="0.50" lcCooperative="0.5" lcImpatience="0" jmDriveAfterYellowTime="1.0" accel="2.6" decel="4.5" sigma="0.5"/>
    <vehicle id="-flow-random-route-04f03a84-04b1-40e1-8cfa-139ed178b845-2733479761922347667-4-0.0" type="actor-car-2764321428367610765" depart="0.00" departLane="0" departPos="3.27" departSpeed="max" arrivalLane="0" arrivalPos="41.39">
        <route edges="gneE80 edge-east-EN edge-north-NW edge-west-WS gneE60 gneE60.110 gneE61 gneE62 gneE69 gneE71"/>
    </vehicle>
    <vehicle id="-flow-random-route-0833fd1c-d3c0-4a92-989c-122adec16510-2733479761922347667-8-0.0" type="actor-car-2764321428367610765" depart="0.00" departLane="0" departPos="73.53" departSpeed="max" arrivalLane="0" arrivalPos="12.51">
        <route edges="gneE71 edge-west-WS"/>
    </vehicle>
    <vehicle id="-flow-random-route-121e7234-f89b-4cc4-a13a-49fa130ff288-2733479761922347667-11-0.0" type="actor-car-2764321428367610765" depart="0.00" departLane="0" departPos="55.69" departSpeed="max" arrivalLane="0" arrivalPos="90.96">
        <route edges="gneE60 gneE60.110 gneE61"/>
    </vehicle>
    <vehicle id="-flow-random-route-1a9e0623-900d-45fa-bf6b-7d1a3b09acd5-2733479761922347667-20-0.0" type="actor-car-2764321428367610765" depart="0.00" departLane="0" departPos="1.17" departSpeed="max" arrivalLane="0" arrivalPos="16.29">
        <route edges="gneE61 gneE62 gneE78 gneE81 gneE60.110 gneE61 gneE62 gneE69 gneE71 edge-west-WS"/>
    </vehicle>
    <vehicle id="-flow-random-route-1bb1c7cc-149d-49ab-ad1e-838edbc0b290-2733479761922347667-0-0.0" type="actor-car-2764321428367610765" depart="0.00" departLane="0" departPos="78.10" departSpeed="max" arrivalLane="0" arrivalPos="70.54">
        <route edges="gneE60 gneE60.110 gneE61 gneE62 gneE78 gneE81 gneE60.110 gneE61 gneE62 gneE69"/>
    </vehicle>
    <vehicle id="-flow-random-route-23023642-7c72-46da-952f-53bff061488c-2733479761922347667-29-0.0" type="actor-car-2764321428367610765" depart="0.00" departLane="1" departPos="12.36" departSpeed="max" arrivalLane="1" arrivalPos="32.63">
        <route edges="gneE71 edge-west-WS gneE60 gneE60.110 gneE61 gneE62 gneE78 gneE78.64 gneE80 edge-east-EN"/>
    </vehicle>
    <vehicle id="-flow-random-route-27981bfb-9dc3-4bd5-ae29-709baeb928e0-2733479761922347667-9-0.0" type="actor-car-2764321428367610765" depart="0.00" departLane="1" departPos="33.08" departSpeed="max" arrivalLane="1" arrivalPos="74.45">
        <route edges="edge-west-WS edge-south-SE edge-east-EN edge-north-NW edge-west-WS edge-south-SE edge-east-EN edge-north-NW edge-west-WS gneE60"/>
    </vehicle>
    <vehicle id="-flow-random-route-2b335656-f74c-4d24-bd4c-945a98c85ce4-2733479761922347667-15-0.0" type="actor-car-2764321428367610765" depart="0.00" departLane="1" departPos="82.06" departSpeed="max" arrivalLane="1" arrivalPos="33.00">
        <route edges="gneE69 gneE71 edge-west-WS edge-south-SE edge-east-EN edge-north-NW edge-west-WS gneE60 gneE60.110 gneE61"/>
    </vehicle>
    <vehicle id="-flow-random-route-2c39aac0-4a15-41a1-a8f9-7f10eed84fd1-2733479761922347667-18-0.0" type="actor-car-2764321428367610765" depart="0.00" departLane="1" departPos="14.91" departSpeed="max" arrivalLane="1" arrivalPos="77.33">
        <route edges="edge-west-WS edge-south-SE edge-east-EN edge-north-NW edge-west-WS edge-south-SE edge-east-EN edge-north-NW edge-west-WS gneE60"/>
    </vehicle>
    <vehicle id="-flow-random-route-2d208360-690f-4bc8-83ab-8f203ef351a3-2733479761922347667-19-0.0" type="actor-car-2764321428367610765" depart="0.00" departLane="0" departPos="101.18" departSpeed="max" arrivalLane="1" arrivalPos="3.53">
        <route edges="gneE78.64 gneE80 edge-east-EN edge-north-NW edge-west-WS gneE60 gneE60.110 gneE61 gneE62 gneE78"/>
    </vehicle>
    <vehicle id="-flow-random-route-36bd8b7c-1f20-4d09-9c32-2e6407ad0353-2733479761922347667-13-0.0" type="actor-car-2764321428367610765" depart="0.00" departLane="1" departPos="35.74" departSpeed="max" arrivalLane="1" arrivalPos="63.88">
        <route edges="edge-north-NW edge-west-WS"/>
    </vehicle>
    <vehicle id="-flow-random-route-3f9d6855-ae20-4c61-be91-034afe940e5e-2733479761922347667-21-0.0" type="actor-car-2764321428367610765" depart="0.00" departLane="0" departPos="9.90" departSpeed="max" arrivalLane="1" arrivalPos="15.45">
        <route edges="gneE60.110 gneE61 gneE62 gneE78 gneE78.64 gneE80 edge-east-EN edge-north-NW edge-west-WS gneE60"/>
    </vehicle>
    <vehicle id="-flow-random-route-4c37e8db-8c2c-4a6d-b7f4-4f5010f23750-2733479761922347667-17-0.0" type="actor-car-2764321428367610765" depart="0.00" departLane="1" departPos="94.83" departSpeed="max" arrivalLane="1" arrivalPos="14.46">
        <route edges="gneE78.64 gneE80 edge-east-EN edge-north-NW edge-west-WS edge-south-SE"/>
    </vehicle>
    <vehicle id="-flow-random-route-53f7ae9c-c319-4553-ac92-5b98417c08be-2733479761922347667-16-0.0" type="actor-car-2764321428367610765" depart="0.00" departLane="1" departPos="42.04" departSpeed="max" arrivalLane="1" arrivalPos="26.39">
        <route edges="edge-north-NW edge-west-WS gneE60"/>
    </vehicle>
    <vehicle id="-flow-random-route-554ab865-8218-4450-abcd-b3518097a84a-2733479761922347667-1-0.0" type="actor-car-2764321428367610765" depart="0.00" departLane="1" departPos="49.46" departSpeed="max" arrivalLane="0" arrivalPos="11.60">
        <route edges="gneE61 gneE62 gneE78 gneE78.64 gneE80 edge-east-EN edge-north-NW edge-west-WS gneE60 gneE60.110"/>
    </vehicle>
    <vehicle id="-flow-random-route-609f662c-f5e5-4730-ab50-e1fc3230a76f-2733479761922347667-14-0.0" type="actor-car-2764321428367610765" depart="0.00" departLane="0" departPos="30.78" departSpeed="max" arrivalLane="0" arrivalPos="31.12">
        <route edges="gneE61 gneE62 gneE69 gneE71 edge-west-WS edge-south-SE"/>
    </vehicle>
    <vehicle id="-flow-random-route-6f962cfc-28c8-49d7-a633-3e67482f25a9-2733479761922347667-2-0.0" type="actor-car-2764321428367610765" depart="0.00" departLane="0" departPos="28.40" departSpeed="max" arrivalLane="1" arrivalPos="28.54">
        <route edges="gneE78 gneE78.64 gneE80 edge-east-EN edge-north-NW edge-west-WS"/>
    </vehicle>
    <vehicle id="-flow-random-route-72cb7fe0-2c1e-4b28-af47-c5c2e6123ce7-2733479761922347667-10-0.0" type="actor-car-2764321428367610765" depart="0.00" departLane="1" departPos="13.59" departSpeed="max" arrivalLane="0" arrivalPos="46.89">
        <route edges="edge-east-EN edge-north-NW edge-west-WS"/>
    </vehicle>
    <vehicle id="-flow-random-route-82014af8-e7c1-4006-a52f-34f4c36ddae1-2733479761922347667-24-0.0" type="actor-car-2764321428367610765" depart="0.00" departLane="0" departPos="52.41" departSpeed="max" arrivalLane="1" arrivalPos="40.72">
        <route edges="edge-west-WS gneE60 gneE60.110"/>
    </vehicle>
    <vehicle id="-flow-random-route-8902c78c-f354-40cb-9f8c-def3aa0715f1-2733479761922347667-3-0.0" type="actor-car-2764321428367610765" depart="0.00" departLane="0" departPos="30.38" departSpeed="max" arrivalLane="0" arrivalPos="43.00">
        <route edges="gneE62 gneE78 gneE78.64 gneE80 edge-east-EN edge-north-NW"/>
    </vehicle>
    <vehicle id="-flow-random-route-a3ed34d6-7c85-4ed3-8d40-abc69ccef4b1-2733479761922347667-22-0.0" type="actor-car-2764321428367610765" depart="0.00" departLane="1" departPos="3.56" departSpeed="max" arrivalLane="1" arrivalPos="60.25">
        <route edges="gneE80 edge-east-EN edge-north-NW edge-west-WS gneE60 gneE60.110 gneE61 gneE62 gneE78 gneE81"/>
    </vehicle>
    <vehicle id="-flow-random-route-acf061df-dd7d-4903-949b-2eeb5018eb19-2733479761922347667-7-0.0" type="actor-car-2764321428367610765" depart="0.00" departLane="1" departPos="93.57" departSpeed="max" arrivalLane="0" arrivalPos="3.26">
        <route edges="gneE61 gneE62 gneE78 gneE81 gneE60.110 gneE61 gneE62 gneE69 gneE71 edge-west-WS"/>
    </vehicle>
    <vehicle id="-flow-random-route-b69d3b51-c6b3-49ac-8b02-c421ca682e9d-2733479761922347667-27-0.0" type="actor-car-2764321428367610765" depart="0.00" departLane="0" departPos="63.78" departSpeed="max" arrivalLane="0" arrivalPos="39.79">
        <route edges="gneE71 edge-west-WS edge-south-SE edge-east-EN edge-north-NW edge-west-WS gneE60 gneE60.110 gneE61 gneE62"/>
    </vehicle>
    <vehicle id="-flow-random-route-bf2d1154-f2c0-47e2-b014-4634ebd8861a-2733479761922347667-5-0.0" type="actor-car-2764321428367610765" depart="0.00" departLane="0" departPos="66.09" departSpeed="max" arrivalLane="0" arrivalPos="37.10">
        <route edges="edge-west-WS gneE60 gneE60.110"/>
    </vehicle>
    <vehicle id="-flow-random-route-ce1d9561-1064-4023-9de7-7c99bd7dd154-2733479761922347667-25-0.0" type="actor-car-2764321428367610765" depart="0.00" departLane="0" departPos="30.31" departSpeed="max" arrivalLane="1" arrivalPos="12.71">
        <route edges="gneE78 gneE78.64 gneE80 edge-east-EN edge-north-NW edge-west-WS"/>
    </vehicle>
    <vehicle id="-flow-random-route-d0922a8d-0525-4eb9-8635-ac0de3cf5937-2733479761922347667-28-0.0" type="actor-car-2764321428367610765" depart="0.00" departLane="0" departPos="62.36" departSpeed="max" arrivalLane="1" arrivalPos="71.78">
        <route edges="gneE61 gneE62 gneE69"/>
    </vehicle>
    <vehicle id="-flow-random-route-d8847010-601a-4b94-93ac-3e1bcfc5aa2c-2733479761922347667-12-0.0" type="actor-car-2764321428367610765" depart="0.00" departLane="0" departPos="13.06" departSpeed="max" arrivalLane="1" arrivalPos="20.19">
        <route edges="edge-south-SE edge-east-EN edge-north-NW edge-west-WS gneE60 gneE60.110 gneE61 gneE62 gneE69 gneE71"/>
    </vehicle>
    <vehicle id="-flow-random-route-de9a7817-5a3a-487a-af4f-4e8c7360881a-2733479761922347667-23-0.0" type="actor-car-2764321428367610765" depart="0.00" departLane="0" departPos="22.02" departSpeed="max" arrivalLane="1" arrivalPos="8.41">
        <route edges="gneE78 gneE81 gneE60.110"/>
    </vehicle>
    <vehicle id="-flow-random-route-ece7ec6a-7a48-4a50-825c-574f48224711-2733479761922347667-6-0.0" type="actor-car-2764321428367610765" depart="0.00" departLane="0" departPos="3.31" departSpeed="max" arrivalLane="0" arrivalPos="70.01">
        <route edges="gneE69 gneE71 edge-west-WS"/>
    </vehicle>
    <vehicle id="-flow-random-route-fbd0d854-3e73-4ff3-a942-a447a0c0d3c4-2733479761922347667-26-0.0" type="actor-car-2764321428367610765" depart="0.00" departLane="1" departPos="131.86" departSpeed="max" arrivalLane="0" arrivalPos="24.29">
        <route edges="gneE69 gneE71 edge-west-WS edge-south-SE edge-east-EN edge-north-NW"/>
    </vehicle>
    <vehicle id="-flow-random-route-04f03a84-04b1-40e1-8cfa-139ed178b845-2733479761922347667-4-0.1" type="actor-car-2764321428367610765" depart="120.00" departLane="0" departPos="3.27" departSpeed="max" arrivalLane="0" arrivalPos="41.39">
        <route edges="gneE80 edge-east-EN edge-north-NW edge-west-WS gneE60 gneE60.110 gneE61 gneE62 gneE69 gneE71"/>
    </vehicle>
    <vehicle id="-flow-random-route-0833fd1c-d3c0-4a92-989c-122adec16510-2733479761922347667-8-0.1" type="actor-car-2764321428367610765" depart="120.00" departLane="0" departPos="73.53" departSpeed="max" arrivalLane="0" arrivalPos="12.51">
        <route edges="gneE71 edge-west-WS"/>
    </vehicle>
    <vehicle id="-flow-random-route-121e7234-f89b-4cc4-a13a-49fa130ff288-2733479761922347667-11-0.1" type="actor-car-2764321428367610765" depart="120.00" departLane="0" departPos="55.69" departSpeed="max" arrivalLane="0" arrivalPos="90.96">
        <route edges="gneE60 gneE60.110 gneE61"/>
    </vehicle>
    <vehicle id="-flow-random-route-1a9e0623-900d-45fa-bf6b-7d1a3b09acd5-2733479761922347667-20-0.1" type="actor-car-2764321428367610765" depart="120.00" departLane="0" departPos="1.17" departSpeed="max" arrivalLane="0" arrivalPos="16.29">
        <route edges="gneE61 gneE62 gneE78 gneE81 gneE60.110 gneE61 gneE62 gneE69 gneE71 edge-west-WS"/>
    </vehicle>
    <vehicle id="-flow-random-route-1bb1c7cc-149d-49ab-ad1e-838edbc0b290-2733479761922347667-0-0.1" type="actor-car-2764321428367610765" depart="120.00" departLane="0" departPos="78.10" departSpeed="max" arrivalLane="0" arrivalPos="70.54">
        <route edges="gneE60 gneE60.110 gneE61 gneE62 gneE78 gneE81 gneE60.110 gneE61 gneE62 gneE69"/>
    </vehicle>
    <vehicle id="-flow-random-route-23023642-7c72-46da-952f-53bff061488c-2733479761922347667-29-0.1" type="actor-car-2764321428367610765" depart="120.00" departLane="1" departPos="12.36" departSpeed="max" arrivalLane="1" arrivalPos="32.63">
        <route edges="gneE71 edge-west-WS gneE60 gneE60.110 gneE61 gneE62 gneE78 gneE78.64 gneE80 edge-east-EN"/>
    </vehicle>
    <vehicle id="-flow-random-route-27981bfb-9dc3-4bd5-ae29-709baeb928e0-2733479761922347667-9-0.1" type="actor-car-2764321428367610765" depart="120.00" departLane="1" departPos="33.08" departSpeed="max" arrivalLane="1" arrivalPos="74.45">
        <route edges="edge-west-WS edge-south-SE edge-east-EN edge-north-NW edge-west-WS edge-south-SE edge-east-EN edge-north-NW edge-west-WS gneE60"/>
    </vehicle>
    <vehicle id="-flow-random-route-2b335656-f74c-4d24-bd4c-945a98c85ce4-2733479761922347667-15-0.1" type="actor-car-2764321428367610765" depart="120.00" departLane="1" departPos="82.06" departSpeed="max" arrivalLane="1" arrivalPos="33.00">
        <route edges="gneE69 gneE71 edge-west-WS edge-south-SE edge-east-EN edge-north-NW edge-west-WS gneE60 gneE60.110 gneE61"/>
    </vehicle>
    <vehicle id="-flow-random-route-2c39aac0-4a15-41a1-a8f9-7f10eed84fd1-2733479761922347667-18-0.1" type="actor-car-2764321428367610765" depart="120.00" departLane="1" departPos="14.91" departSpeed="max" arrivalLane="1" arrivalPos="77.33">
        <route edges="edge-west-WS edge-south-SE edge-east-EN edge-north-NW edge-west-WS edge-south-SE edge-east-EN edge-north-NW edge-west-WS gneE60"/>
    </vehicle>
    <vehicle id="-flow-random-route-2d208360-690f-4bc8-83ab-8f203ef351a3-2733479761922347667-19-0.1" type="actor-car-2764321428367610765" depart="120.00" departLane="0" departPos="101.18" departSpeed="max" arrivalLane="1" arrivalPos="3.53">
        <route edges="gneE78.64 gneE80 edge-east-EN edge-north-NW edge-west-WS gneE60 gneE60.110 gneE61 gneE62 gneE78"/>
    </vehicle>
    <vehicle id="-flow-random-route-36bd8b7c-1f20-4d09-9c32-2e6407ad0353-2733479761922347667-13-0.1" type="actor-car-2764321428367610765" depart="120.00" departLane="1" departPos="35.74" departSpeed="max" arrivalLane="1" arrivalPos="63.88">
        <route edges="edge-north-NW edge-west-WS"/>
    </vehicle>
    <vehicle id="-flow-random-route-3f9d6855-ae20-4c61-be91-034afe940e5e-2733479761922347667-21-0.1" type="actor-car-2764321428367610765" depart="120.00" departLane="0" departPos="9.90" departSpeed="max" arrivalLane="1" arrivalPos="15.45">
        <route edges="gneE60.110 gneE61 gneE62 gneE78 gneE78.64 gneE80 edge-east-EN edge-north-NW edge-west-WS gneE60"/>
    </vehicle>
    <vehicle id="-flow-random-route-4c37e8db-8c2c-4a6d-b7f4-4f5010f23750-2733479761922347667-17-0.1" type="actor-car-2764321428367610765" depart="120.00" departLane="1" departPos="94.83" departSpeed="max" arrivalLane="1" arrivalPos="14.46">
        <route edges="gneE78.64 gneE80 edge-east-EN edge-north-NW edge-west-WS edge-south-SE"/>
    </vehicle>
    <vehicle id="-flow-random-route-53f7ae9c-c319-4553-ac92-5b98417c08be-2733479761922347667-16-0.1" type="actor-car-2764321428367610765" depart="120.00" departLane="1" departPos="42.04" departSpeed="max" arrivalLane="1" arrivalPos="26.39">
        <route edges="edge-north-NW edge-west-WS gneE60"/>
    </vehicle>
    <vehicle id="-flow-random-route-554ab865-8218-4450-abcd-b3518097a84a-2733479761922347667-1-0.1" type="actor-car-2764321428367610765" depart="120.00" departLane="1" departPos="49.46" departSpeed="max" arrivalLane="0" arrivalPos="11.60">
        <route edges="gneE61 gneE62 gneE78 gneE78.64 gneE80 edge-east-EN edge-north-NW edge-west-WS gneE60 gneE60.110"/>
    </vehicle>
    <vehicle id="-flow-random-route-609f662c-f5e5-4730-ab50-e1fc3230a76f-2733479761922347667-14-0.1" type="actor-car-2764321428367610765" depart="120.00" departLane="0" departPos="30.78" departSpeed="max" arrivalLane="0" arrivalPos="31.12">
        <route edges="gneE61 gneE62 gneE69 gneE71 edge-west-WS edge-south-SE"/>
    </vehicle>
    <vehicle id="-flow-random-route-6f962cfc-28c8-49d7-a633-3e67482f25a9-2733479761922347667-2-0.1" type="actor-car-2764321428367610765" depart="120.00" departLane="0" departPos="28.40" departSpeed="max" arrivalLane="1" arrivalPos="28.54">
        <route edges="gneE78 gneE78.64 gneE80 edge-east-EN edge-north-NW edge-west-WS"/>
    </vehicle>
    <vehicle id="-flow-random-route-72cb7fe0-2c1e-4b28-af47-c5c2e6123ce7-2733479761922347667-10-0.1" type="actor-car-2764321428367610765" depart="120.00" departLane="1" departPos="13.59" departSpeed="max" arrivalLane="0" arrivalPos="46.89">
        <route edges="edge-east-EN edge-north-NW edge-west-WS"/>
    </vehicle>
    <vehicle id="-flow-random-route-82014af8-e7c1-4006-a52f-34f4c36ddae1-2733479761922347667-24-0.1" type="actor-car-2764321428367610765" depart="120.00" departLane="0" departPos="52.41" departSpeed="max" arrivalLane="1" arrivalPos="40.72">
        <route edges="edge-west-WS gneE60 gneE60.110"/>
    </vehicle>
    <vehicle id="-flow-random-route-8902c78c-f354-40cb-9f8c-def3aa0715f1-2733479761922347667-3-0.1" type="actor-car-2764321428367610765" depart="120.00" departLane="0" departPos="30.38" departSpeed="max" arrivalLane="0" arrivalPos="43.00">
        <route edges="gneE62 gneE78 gneE78.64 gneE80 edge-east-EN edge-north-NW"/>
    </vehicle>
    <vehicle id="-flow-random-route-a3ed34d6-7c85-4ed3-8d40-abc69ccef4b1-2733479761922347667-22-0.1" type="actor-car-2764321428367610765" depart="120.00" departLane="1" departPos="3.56" departSpeed="max" arrivalLane="1" arrivalPos="60.25">
        <route edges="gneE80 edge-east-EN edge-north-NW edge-west-WS gneE60 gneE60.110 gneE61 gneE62 gneE78 gneE81"/>
    </vehicle>
    <vehicle id="-flow-random-route-acf061df-dd7d-4903-949b-2eeb5018eb19-2733479761922347667-7-0.1" type="actor-car-2764321428367610765" depart="120.00" departLane="1" departPos="93.57" departSpeed="max" arrivalLane="0" arrivalPos="3.26">
        <route edges="gneE61 gneE62 gneE78 gneE81 gneE60.110 gneE61 gneE62 gneE69 gneE71 edge-west-WS"/>
    </vehicle>
    <vehicle id="-flow-random-route-b69d3b51-c6b3-49ac-8b02-c421ca682e9d-2733479761922347667-27-0.1" type="actor-car-2764321428367610765" depart="120.00" departLane="0" departPos="63.78" departSpeed="max" arrivalLane="0" arrivalPos="39.79">
        <route edges="gneE71 edge-west-WS edge-south-SE edge-east-EN edge-north-NW edge-west-WS gneE60 gneE60.110 gneE61 gneE62"/>
    </vehicle>
    <vehicle id="-flow-random-route-bf2d1154-f2c0-47e2-b014-4634ebd8861a-2733479761922347667-5-0.1" type="actor-car-2764321428367610765" depart="120.00" departLane="0" departPos="66.09" departSpeed="max" arrivalLane="0" arrivalPos="37.10">
        <route edges="edge-west-WS gneE60 gneE60.110"/>
    </vehicle>
    <vehicle id="-flow-random-route-ce1d9561-1064-4023-9de7-7c99bd7dd154-2733479761922347667-25-0.1" type="actor-car-2764321428367610765" depart="120.00" departLane="0" departPos="30.31" departSpeed="max" arrivalLane="1" arrivalPos="12.71">
        <route edges="gneE78 gneE78.64 gneE80 edge-east-EN edge-north-NW edge-west-WS"/>
    </vehicle>
    <vehicle id="-flow-random-route-d0922a8d-0525-4eb9-8635-ac0de3cf5937-2733479761922347667-28-0.1" type="actor-car-2764321428367610765" depart="120.00" departLane="0" departPos="62.36" departSpeed="max" arrivalLane="1" arrivalPos="71.78">
        <route edges="gneE61 gneE62 gneE69"/>
    </vehicle>
    <vehicle id="-flow-random-route-d8847010-601a-4b94-93ac-3e1bcfc5aa2c-2733479761922347667-12-0.1" type="actor-car-2764321428367610765" depart="120.00" departLane="0" departPos="13.06" departSpeed="max" arrivalLane="1" arrivalPos="20.19">
        <route edges="edge-south-SE edge-east-EN edge-north-NW edge-west-WS gneE60 gneE60.110 gneE61 gneE62 gneE69 gneE71"/>
    </vehicle>
    <vehicle id="-flow-random-route-de9a7817-5a3a-487a-af4f-4e8c7360881a-2733479761922347667-23-0.1" type="actor-car-2764321428367610765" depart="120.00" departLane="0" departPos="22.02" departSpeed="max" arrivalLane="1" arrivalPos="8.41">
        <route edges="gneE78 gneE81 gneE60.110"/>
    </vehicle>
    <vehicle id="-flow-random-route-ece7ec6a-7a48-4a50-825c-574f48224711-2733479761922347667-6-0.1" type="actor-car-2764321428367610765" depart="120.00" departLane="0" departPos="3.31" departSpeed="max" arrivalLane="0" arrivalPos="70.01">
        <route edges="gneE69 gneE71 edge-west-WS"/>
    </vehicle>
    <vehicle id="-flow-random-route-fbd0d854-3e73-4ff3-a942-a447a0c0d3c4-2733479761922347667-26-0.1" type="actor-car-2764321428367610765" depart="120.00" departLane="1" departPos="131.86" departSpeed="max" arrivalLane="0" arrivalPos="24.29">
        <route edges="gneE69 gneE71 edge-west-WS edge-south-SE edge-east-EN edge-north-NW"/>
    </vehicle>
    <vehicle id="-flow-random-route-04f03a84-04b1-40e1-8cfa-139ed178b845-2733479761922347667-4-0.2" type="actor-car-2764321428367610765" depart="240.00" departLane="0" departPos="3.27" departSpeed="max" arrivalLane="0" arrivalPos="41.39">
        <route edges="gneE80 edge-east-EN edge-north-NW edge-west-WS gneE60 gneE60.110 gneE61 gneE62 gneE69 gneE71"/>
    </vehicle>
    <vehicle id="-flow-random-route-0833fd1c-d3c0-4a92-989c-122adec16510-2733479761922347667-8-0.2" type="actor-car-2764321428367610765" depart="240.00" departLane="0" departPos="73.53" departSpeed="max" arrivalLane="0" arrivalPos="12.51">
        <route edges="gneE71 edge-west-WS"/>
    </vehicle>
    <vehicle id="-flow-random-route-121e7234-f89b-4cc4-a13a-49fa130ff288-2733479761922347667-11-0.2" type="actor-car-2764321428367610765" depart="240.00" departLane="0" departPos="55.69" departSpeed="max" arrivalLane="0" arrivalPos="90.96">
        <route edges="gneE60 gneE60.110 gneE61"/>
    </vehicle>
    <vehicle id="-flow-random-route-1a9e0623-900d-45fa-bf6b-7d1a3b09acd5-2733479761922347667-20-0.2" type="actor-car-2764321428367610765" depart="240.00" departLane="0" departPos="1.17" departSpeed="max" arrivalLane="0" arrivalPos="16.29">
        <route edges="gneE61 gneE62 gneE78 gneE81 gneE60.110 gneE61 gneE62 gneE69 gneE71 edge-west-WS"/>
    </vehicle>
    <vehicle id="-flow-random-route-1bb1c7cc-149d-49ab-ad1e-838edbc0b290-2733479761922347667-0-0.2" type="actor-car-2764321428367610765" depart="240.00" departLane="0" departPos="78.10" departSpeed="max" arrivalLane="0" arrivalPos="70.54">
        <route edges="gneE60 gneE60.110 gneE61 gneE62 gneE78 gneE81 gneE60.110 gneE61 gneE62 gneE69"/>
    </vehicle>
    <vehicle id="-flow-random-route-23023642-7c72-46da-952f-53bff061488c-2733479761922347667-29-0.2" type="actor-car-2764321428367610765" depart="240.00" departLane="1" departPos="12.36" departSpeed="max" arrivalLane="1" arrivalPos="32.63">
        <route edges="gneE71 edge-west-WS gneE60 gneE60.110 gneE61 gneE62 gneE78 gneE78.64 gneE80 edge-east-EN"/>
    </vehicle>
    <vehicle id="-flow-random-route-27981bfb-9dc3-4bd5-ae29-709baeb928e0-2733479761922347667-9-0.2" type="actor-car-2764321428367610765" depart="240.00" departLane="1" departPos="33.08" departSpeed="max" arrivalLane="1" arrivalPos="74.45">
        <route edges="edge-west-WS edge-south-SE edge-east-EN edge-north-NW edge-west-WS edge-south-SE edge-east-EN edge-north-NW edge-west-WS gneE60"/>
    </vehicle>
    <vehicle id="-flow-random-route-2b335656-f74c-4d24-bd4c-945a98c85ce4-2733479761922347667-15-0.2" type="actor-car-2764321428367610765" depart="240.00" departLane="1" departPos="82.06" departSpeed="max" arrivalLane="1" arrivalPos="33.00">
        <route edges="gneE69 gneE71 edge-west-WS edge-south-SE edge-east-EN edge-north-NW edge-west-WS gneE60 gneE60.110 gneE61"/>
    </vehicle>
    <vehicle id="-flow-random-route-2c39aac0-4a15-41a1-a8f9-7f10eed84fd1-2733479761922347667-18-0.2" type="actor-car-2764321428367610765" depart="240.00" departLane="1" departPos="14.91" departSpeed="max" arrivalLane="1" arrivalPos="77.33">
        <route edges="edge-west-WS edge-south-SE edge-east-EN edge-north-NW edge-west-WS edge-south-SE edge-east-EN edge-north-NW edge-west-WS gneE60"/>
    </vehicle>
    <vehicle id="-flow-random-route-2d208360-690f-4bc8-83ab-8f203ef351a3-2733479761922347667-19-0.2" type="actor-car-2764321428367610765" depart="240.00" departLane="0" departPos="101.18" departSpeed="max" arrivalLane="1" arrivalPos="3.53">
        <route edges="gneE78.64 gneE80 edge-east-EN edge-north-NW edge-west-WS gneE60 gneE60.110 gneE61 gneE62 gneE78"/>
    </vehicle>
    <vehicle id="-flow-random-route-36bd8b7c-1f20-4d09-9c32-2e6407ad0353-2733479761922347667-13-0.2" type="actor-car-2764321428367610765" depart="240.00" departLane="1" departPos="35.74" departSpeed="max" arrivalLane="1" arrivalPos="63.88">
        <route edges="edge-north-NW edge-west-WS"/>
    </vehicle>
    <vehicle id="-flow-random-route-3f9d6855-ae20-4c61-be91-034afe940e5e-2733479761922347667-21-0.2" type="actor-car-2764321428367610765" depart="240.00" departLane="0" departPos="9.90" departSpeed="max" arrivalLane="1" arrivalPos="15.45">
        <route edges="gneE60.110 gneE61 gneE62 gneE78 gneE78.64 gneE80 edge-east-EN edge-north-NW edge-west-WS gneE60"/>
    </vehicle>
    <vehicle id="-flow-random-route-4c37e8db-8c2c-4a6d-b7f4-4f5010f23750-2733479761922347667-17-0.2" type="actor-car-2764321428367610765" depart="240.00" departLane="1" departPos="94.83" departSpeed="max" arrivalLane="1" arrivalPos="14.46">
        <route edges="gneE78.64 gneE80 edge-east-EN edge-north-NW edge-west-WS edge-south-SE"/>
    </vehicle>
    <vehicle id="-flow-random-route-53f7ae9c-c319-4553-ac92-5b98417c08be-2733479761922347667-16-0.2" type="actor-car-2764321428367610765" depart="240.00" departLane="1" departPos="42.04" departSpeed="max" arrivalLane="1" arrivalPos="26.39">
        <route edges="edge-north-NW edge-west-WS gneE60"/>
    </vehicle>
    <vehicle id="-flow-random-route-554ab865-8218-4450-abcd-b3518097a84a-2733479761922347667-1-0.2" type="actor-car-2764321428367610765" depart="240.00" departLane="1" departPos="49.46" departSpeed="max" arrivalLane="0" arrivalPos="11.60">
        <route edges="gneE61 gneE62 gneE78 gneE78.64 gneE80 edge-east-EN edge-north-NW edge-west-WS gneE60 gneE60.110"/>
    </vehicle>
    <vehicle id="-flow-random-route-609f662c-f5e5-4730-ab50-e1fc3230a76f-2733479761922347667-14-0.2" type="actor-car-2764321428367610765" depart="240.00" departLane="0" departPos="30.78" departSpeed="max" arrivalLane="0" arrivalPos="31.12">
        <route edges="gneE61 gneE62 gneE69 gneE71 edge-west-WS edge-south-SE"/>
    </vehicle>
    <vehicle id="-flow-random-route-6f962cfc-28c8-49d7-a633-3e67482f25a9-2733479761922347667-2-0.2" type="actor-car-2764321428367610765" depart="240.00" departLane="0" departPos="28.40" departSpeed="max" arrivalLane="1" arrivalPos="28.54">
        <route edges="gneE78 gneE78.64 gneE80 edge-east-EN edge-north-NW edge-west-WS"/>
    </vehicle>
    <vehicle id="-flow-random-route-72cb7fe0-2c1e-4b28-af47-c5c2e6123ce7-2733479761922347667-10-0.2" type="actor-car-2764321428367610765" depart="240.00" departLane="1" departPos="13.59" departSpeed="max" arrivalLane="0" arrivalPos="46.89">
        <route edges="edge-east-EN edge-north-NW edge-west-WS"/>
    </vehicle>
    <vehicle id="-flow-random-route-82014af8-e7c1-4006-a52f-34f4c36ddae1-2733479761922347667-24-0.2" type="actor-car-2764321428367610765" depart="240.00" departLane="0" departPos="52.41" departSpeed="max" arrivalLane="1" arrivalPos="40.72">
        <route edges="edge-west-WS gneE60 gneE60.110"/>
    </vehicle>
    <vehicle id="-flow-random-route-8902c78c-f354-40cb-9f8c-def3aa0715f1-2733479761922347667-3-0.2" type="actor-car-2764321428367610765" depart="240.00" departLane="0" departPos="30.38" departSpeed="max" arrivalLane="0" arrivalPos="43.00">
        <route edges="gneE62 gneE78 gneE78.64 gneE80 edge-east-EN edge-north-NW"/>
    </vehicle>
    <vehicle id="-flow-random-route-a3ed34d6-7c85-4ed3-8d40-abc69ccef4b1-2733479761922347667-22-0.2" type="actor-car-2764321428367610765" depart="240.00" departLane="1" departPos="3.56" departSpeed="max" arrivalLane="1" arrivalPos="60.25">
        <route edges="gneE80 edge-east-EN edge-north-NW edge-west-WS gneE60 gneE60.110 gneE61 gneE62 gneE78 gneE81"/>
    </vehicle>
    <vehicle id="-flow-random-route-acf061df-dd7d-4903-949b-2eeb5018eb19-2733479761922347667-7-0.2" type="actor-car-2764321428367610765" depart="240.00" departLane="1" departPos="93.57" departSpeed="max" arrivalLane="0" arrivalPos="3.26">
        <route edges="gneE61 gneE62 gneE78 gneE81 gneE60.110 gneE61 gneE62 gneE69 gneE71 edge-west-WS"/>