<?xml version="1.0" encoding="UTF-8"?>

<!-- generated on Sun Aug 30 13:07:48 2020 by Eclipse SUMO duarouter Version 1.6.0
<configuration xmlns:xsi="http://www.w3.org/2001/XMLSchema-instance" xsi:noNamespaceSchemaLocation="http://sumo.dlr.de/xsd/duarouterConfiguration.xsd">

    <input>
        <net-file value="../dataset_public/mixed_loop/roundabout_merge_a/map.net.xml"/>
        <route-files value="/tmp/tmpg1kl9r_d/trips.trips.xml"/>
    </input>

    <output>
        <output-file value="../dataset_public/mixed_loop/roundabout_merge_a/traffic/30_patient_car.rou.xml"/>
        <alternatives-output value="../dataset_public/mixed_loop/roundabout_merge_a/traffic/30_patient_car.rou.alt.xml"/>
    </output>

    <processing>
        <unsorted-input value="true"/>
        <repair value="true"/>
    </processing>

    <report>
        <error-log value="/tmp/smarts/_duarouter_routing/traffic/30_patient_car.log"/>
        <no-step-log value="true"/>
    </report>

    <random_number>
        <seed value="42"/>
    </random_number>

</configuration>
-->

<routes xmlns:xsi="http://www.w3.org/2001/XMLSchema-instance" xsi:noNamespaceSchemaLocation="http://sumo.dlr.de/xsd/routes_file.xsd">
    <vType id="actor-car--5918855107799839554" minGap="2.50" speedFactor="normc(0.50,0.20,0.20,2.00)" vClass="passenger" impatience="0.50" lcCooperative="0.5" lcImpatience="0" jmDriveAfterYellowTime="1.0" accel="2.6" decel="4.5" sigma="0.5"/>
    <vehicle id="-flow-random-route-073cf77a-b7e3-4132-9dfe-0ecc0157d457-6646093308675746823-4-0.0" type="actor-car--5918855107799839554" depart="0.00" departLane="1" departPos="33.08" departSpeed="max" arrivalLane="1" arrivalPos="74.45">
        <route edges="edge-west-WS edge-south-SE edge-east-EN edge-north-NW edge-west-WS edge-south-SE edge-east-EN edge-north-NW edge-west-WS gneE60"/>
    </vehicle>
    <vehicle id="-flow-random-route-0baa4a17-2671-44ed-86be-a74351815c42-6646093308675746823-18-0.0" type="actor-car--5918855107799839554" depart="0.00" departLane="0" departPos="3.31" departSpeed="max" arrivalLane="0" arrivalPos="70.01">
        <route edges="gneE69 gneE71 edge-west-WS"/>
    </vehicle>
    <vehicle id="-flow-random-route-14b3a5fa-85ee-41cd-aa96-c505bc1ec427-6646093308675746823-19-0.0" type="actor-car--5918855107799839554" depart="0.00" departLane="1" departPos="13.59" departSpeed="max" arrivalLane="0" arrivalPos="46.89">
        <route edges="edge-east-EN edge-north-NW edge-west-WS"/>
    </vehicle>
    <vehicle id="-flow-random-route-1edeacda-21e0-491d-8c0c-7a4f4183ab80-6646093308675746823-28-0.0" type="actor-car--5918855107799839554" depart="0.00" departLane="0" departPos="13.06" departSpeed="max" arrivalLane="1" arrivalPos="20.19">
        <route edges="edge-south-SE edge-east-EN edge-north-NW edge-west-WS gneE60 gneE60.110 gneE61 gneE62 gneE69 gneE71"/>
    </vehicle>
    <vehicle id="-flow-random-route-212e489a-7004-40b4-b0dd-22680519a6fa-6646093308675746823-20-0.0" type="actor-car--5918855107799839554" depart="0.00" departLane="1" departPos="35.74" departSpeed="max" arrivalLane="1" arrivalPos="63.88">
        <route edges="edge-north-NW edge-west-WS"/>
    </vehicle>
    <vehicle id="-flow-random-route-2404f030-e37f-42c9-9ba1-60c9c66c8124-6646093308675746823-1-0.0" type="actor-car--5918855107799839554" depart="0.00" departLane="0" departPos="73.53" departSpeed="max" arrivalLane="0" arrivalPos="12.51">
        <route edges="gneE71 edge-west-WS"/>
    </vehicle>
    <vehicle id="-flow-random-route-26b9acb1-ae33-46a6-92bf-8f388a0293bc-6646093308675746823-16-0.0" type="actor-car--5918855107799839554" depart="0.00" departLane="0" departPos="66.09" departSpeed="max" arrivalLane="0" arrivalPos="37.10">
        <route edges="edge-west-WS gneE60 gneE60.110"/>
    </vehicle>
    <vehicle id="-flow-random-route-2dc964ca-e134-43b9-b425-52bacb9ff745-6646093308675746823-23-0.0" type="actor-car--5918855107799839554" depart="0.00" departLane="0" departPos="55.69" departSpeed="max" arrivalLane="0" arrivalPos="90.96">
        <route edges="gneE60 gneE60.110 gneE61"/>
    </vehicle>
    <vehicle id="-flow-random-route-4da6e0bd-5a8b-4e7c-b2f7-9acbcb9ba7fa-6646093308675746823-9-0.0" type="actor-car--5918855107799839554" depart="0.00" departLane="0" departPos="1.17" departSpeed="max" arrivalLane="0" arrivalPos="16.29">
        <route edges="gneE61 gneE62 gneE78 gneE81 gneE60.110 gneE61 gneE62 gneE69 gneE71 edge-west-WS"/>
    </vehicle>
    <vehicle id="-flow-random-route-508926e6-9526-49b8-92e9-6f80ca852bcd-6646093308675746823-27-0.0" type="actor-car--5918855107799839554" depart="0.00" departLane="0" departPos="63.78" departSpeed="max" arrivalLane="0" arrivalPos="39.79">
        <route edges="gneE71 edge-west-WS edge-south-SE edge-east-EN edge-north-NW edge-west-WS gneE60 gneE60.110 gneE61 gneE62"/>
    </vehicle>
    <vehicle id="-flow-random-route-512d4c08-2b49-4862-abae-2c631c2b3925-6646093308675746823-5-0.0" type="actor-car--5918855107799839554" depart="0.00" departLane="0" departPos="22.02" departSpeed="max" arrivalLane="1" arrivalPos="8.41">
        <route edges="gneE78 gneE81 gneE60.110"/>
    </vehicle>
    <vehicle id="-flow-random-route-599fa3ac-1cce-4248-b8eb-c92f6c849dc5-6646093308675746823-3-0.0" type="actor-car--5918855107799839554" depart="0.00" departLane="1" departPos="94.83" departSpeed="max" arrivalLane="1" arrivalPos="14.46">
        <route edges="gneE78.64 gneE80 edge-east-EN edge-north-NW edge-west-WS edge-south-SE"/>
    </vehicle>
    <vehicle id="-flow-random-route-5a955d21-20de-4a15-af3d-0ad1897297ae-6646093308675746823-21-0.0" type="actor-car--5918855107799839554" depart="0.00" departLane="0" departPos="101.18" departSpeed="max" arrivalLane="1" arrivalPos="3.53">
        <route edges="gneE78.64 gneE80 edge-east-EN edge-north-NW edge-west-WS gneE60 gneE60.110 gneE61 gneE62 gneE78"/>
    </vehicle>
    <vehicle id="-flow-random-route-6df58d08-02a8-4f2e-97c4-9e997325651c-6646093308675746823-22-0.0" type="actor-car--5918855107799839554" depart="0.00" departLane="1" departPos="12.36" departSpeed="max" arrivalLane="1" arrivalPos="32.63">
        <route edges="gneE71 edge-west-WS gneE60 gneE60.110 gneE61 gneE62 gneE78 gneE78.64 gneE80 edge-east-EN"/>
    </vehicle>
    <vehicle id="-flow-random-route-73cbbc49-87cc-47d0-9d26-ebe9e6387f0e-6646093308675746823-17-0.0" type="actor-car--5918855107799839554" depart="0.00" departLane="0" departPos="52.41" departSpeed="max" arrivalLane="1" arrivalPos="40.72">
        <route edges="edge-west-WS gneE60 gneE60.110"/>
    </vehicle>
    <vehicle id="-flow-random-route-7b0b611c-b566-46bc-aeb2-eb233014635e-6646093308675746823-15-0.0" type="actor-car--5918855107799839554" depart="0.00" departLane="0" departPos="62.36" departSpeed="max" arrivalLane="1" arrivalPos="71.78">
        <route edges="gneE61 gneE62 gneE69"/>
    </vehicle>
    <vehicle id="-flow-random-route-7fe59610-1d80-4c96-b91c-a58828ff4e1e-6646093308675746823-29-0.0" type="actor-car--5918855107799839554" depart="0.00" departLane="1" departPos="82.06" departSpeed="max" arrivalLane="1" arrivalPos="33.00">
        <route edges="gneE69 gneE71 edge-west-WS edge-south-SE edge-east-EN edge-north-NW edge-west-WS gneE60 gneE60.110 gneE61"/>
    </vehicle>
    <vehicle id="-flow-random-route-8874a86c-9a4e-4a79-8b68-e66b29e62e9b-6646093308675746823-10-0.0" type="actor-car--5918855107799839554" depart="0.00" departLane="0" departPos="3.27" departSpeed="max" arrivalLane="0" arrivalPos="41.39">
        <route edges="gneE80 edge-east-EN edge-north-NW edge-west-WS gneE60 gneE60.110 gneE61 gneE62 gneE69 gneE71"/>
    </vehicle>
    <vehicle id="-flow-random-route-8920c0b4-4cc6-46e3-9c08-42920f168061-6646093308675746823-14-0.0" type="actor-car--5918855107799839554" depart="0.00" departLane="1" departPos="3.56" departSpeed="max" arrivalLane="1" arrivalPos="60.25">
        <route edges="gneE80 edge-east-EN edge-north-NW edge-west-WS gneE60 gneE60.110 gneE61 gneE62 gneE78 gneE81"/>
    </vehicle>
    <vehicle id="-flow-random-route-988b0ae3-9daf-4445-ba77-c35c03d8ea60-6646093308675746823-11-0.0" type="actor-car--5918855107799839554" depart="0.00" departLane="0" departPos="78.10" departSpeed="max" arrivalLane="0" arrivalPos="70.54">
        <route edges="gneE60 gneE60.110 gneE61 gneE62 gneE78 gneE81 gneE60.110 gneE61 gneE62 gneE69"/>
    </vehicle>
    <vehicle id="-flow-random-route-bbe9ce54-b723-46e3-ac85-e561a440b027-6646093308675746823-25-0.0" type="actor-car--5918855107799839554" depart="0.00" departLane="1" departPos="14.91" departSpeed="max" arrivalLane="1" arrivalPos="77.33">
        <route edges="edge-west-WS edge-south-SE edge-east-EN edge-north-NW edge-west-WS edge-south-SE edge-east-EN edge-north-NW edge-west-WS gneE60"/>
    </vehicle>
    <vehicle id="-flow-random-route-bd6c09dc-f2b8-4de3-ae85-d5d85ab43b83-6646093308675746823-0-0.0" type="actor-car--5918855107799839554" depart="0.00" departLane="1" departPos="49.46" departSpeed="max" arrivalLane="0" arrivalPos="11.60">
        <route edges="gneE61 gneE62 gneE78 gneE78.64 gneE80 edge-east-EN edge-north-NW edge-west-WS gneE60 gneE60.110"/>
    </vehicle>
    <vehicle id="-flow-random-route-c010037d-ad2a-4d4b-b4f7-5cbb7129fd6b-6646093308675746823-24-0.0" type="actor-car--5918855107799839554" depart="0.00" departLane="1" departPos="131.86" departSpeed="max" arrivalLane="0" arrivalPos="24.29">
        <route edges="gneE69 gneE71 edge-west-WS edge-south-SE edge-east-EN edge-north-NW"/>
    </vehicle>
    <vehicle id="-flow-random-route-c79d6aa9-87c4-4986-84a9-2a0b456c4db5-6646093308675746823-26-0.0" type="actor-car--5918855107799839554" depart="0.00" departLane="0" departPos="9.90" departSpeed="max" arrivalLane="1" arrivalPos="15.45">
        <route edges="gneE60.110 gneE61 gneE62 gneE78 gneE78.64 gneE80 edge-east-EN edge-north-NW edge-west-WS gneE60"/>
    </vehicle>
    <vehicle id="-flow-random-route-cd595353-dc15-46c8-94c4-141946e20961-6646093308675746823-7-0.0" type="actor-car--5918855107799839554" depart="0.00" departLane="0" departPos="28.40" departSpeed="max" arrivalLane="1" arrivalPos="28.54">
        <route edges="gneE78 gneE78.64 gneE80 edge-east-EN edge-north-NW edge-west-WS"/>
    </vehicle>
    <vehicle id="-flow-random-route-cecabddc-cd85-4313-89c6-7cde1a022bf5-6646093308675746823-13-0.0" type="actor-car--5918855107799839554" depart="0.00" departLane="1" departPos="93.57" departSpeed="max" arrivalLane="0" arrivalPos="3.26">
        <route edges="gneE61 gneE62 gneE78 gneE81 gneE60.110 gneE61 gneE62 gneE69 gneE71 edge-west-WS"/>
    </vehicle>
    <vehicle id="-flow-random-route-d9b5a3e4-a9e2-45d4-b6a3-5e4761238c1a-6646093308675746823-8-0.0" type="actor-car--5918855107799839554" depart="0.00" departLane="0" departPos="30.31" departSpeed="max" arrivalLane="1" arrivalPos="12.71">
        <route edges="gneE78 gneE78.64 gneE80 edge-east-EN edge-north-NW edge-west-WS"/>
    </vehicle>
    <vehicle id="-flow-random-route-e144e032-22b8-49c1-98db-8c0a0f982432-6646093308675746823-6-0.0" type="actor-car--5918855107799839554" depart="0.00" departLane="1" departPos="42.04" departSpeed="max" arrivalLane="1" arrivalPos="26.39">
        <route edges="edge-north-NW edge-west-WS gneE60"/>
    </vehicle>
    <vehicle id="-flow-random-route-e2afea08-5e39-41a7-82f7-535715336a95-6646093308675746823-2-0.0" type="actor-car--5918855107799839554" depart="0.00" departLane="0" departPos="30.78" departSpeed="max" arrivalLane="0" arrivalPos="31.12">
        <route edges="gneE61 gneE62 gneE69 gneE71 edge-west-WS edge-south-SE"/>
    </vehicle>
    <vehicle id="-flow-random-route-f062e1e3-546e-4357-b513-3de0be89c816-6646093308675746823-12-0.0" type="actor-car--5918855107799839554" depart="0.00" departLane="0" departPos="30.38" departSpeed="max" arrivalLane="0" arrivalPos="43.00">
        <route edges="gneE62 gneE78 gneE78.64 gneE80 edge-east-EN edge-north-NW"/>
    </vehicle>
    <vehicle id="-flow-random-route-073cf77a-b7e3-4132-9dfe-0ecc0157d457-6646093308675746823-4-0.1" type="actor-car--5918855107799839554" depart="120.00" departLane="1" departPos="33.08" departSpeed="max" arrivalLane="1" arrivalPos="74.45">
        <route edges="edge-west-WS edge-south-SE edge-east-EN edge-north-NW edge-west-WS edge-south-SE edge-east-EN edge-north-NW edge-west-WS gneE60"/>
    </vehicle>
    <vehicle id="-flow-random-route-0baa4a17-2671-44ed-86be-a74351815c42-6646093308675746823-18-0.1" type="actor-car--5918855107799839554" depart="120.00" departLane="0" departPos="3.31" departSpeed="max" arrivalLane="0" arrivalPos="70.01">
        <route edges="gneE69 gneE71 edge-west-WS"/>
    </vehicle>
    <vehicle id="-flow-random-route-14b3a5fa-85ee-41cd-aa96-c505bc1ec427-6646093308675746823-19-0.1" type="actor-car--5918855107799839554" depart="120.00" departLane="1" departPos="13.59" departSpeed="max" arrivalLane="0" arrivalPos="46.89">
        <route edges="edge-east-EN edge-north-NW edge-west-WS"/>
    </vehicle>
    <vehicle id="-flow-random-route-1edeacda-21e0-491d-8c0c-7a4f4183ab80-6646093308675746823-28-0.1" type="actor-car--5918855107799839554" depart="120.00" departLane="0" departPos="13.06" departSpeed="max" arrivalLane="1" arrivalPos="20.19">
        <route edges="edge-south-SE edge-east-EN edge-north-NW edge-west-WS gneE60 gneE60.110 gneE61 gneE62 gneE69 gneE71"/>
    </vehicle>
    <vehicle id="-flow-random-route-212e489a-7004-40b4-b0dd-22680519a6fa-6646093308675746823-20-0.1" type="actor-car--5918855107799839554" depart="120.00" departLane="1" departPos="35.74" departSpeed="max" arrivalLane="1" arrivalPos="63.88">
        <route edges="edge-north-NW edge-west-WS"/>
    </vehicle>
    <vehicle id="-flow-random-route-2404f030-e37f-42c9-9ba1-60c9c66c8124-6646093308675746823-1-0.1" type="actor-car--5918855107799839554" depart="120.00" departLane="0" departPos="73.53" departSpeed="max" arrivalLane="0" arrivalPos="12.51">
        <route edges="gneE71 edge-west-WS"/>
    </vehicle>
    <vehicle id="-flow-random-route-26b9acb1-ae33-46a6-92bf-8f388a0293bc-6646093308675746823-16-0.1" type="actor-car--5918855107799839554" depart="120.00" departLane="0" departPos="66.09" departSpeed="max" arrivalLane="0" arrivalPos="37.10">
        <route edges="edge-west-WS gneE60 gneE60.110"/>
    </vehicle>
    <vehicle id="-flow-random-route-2dc964ca-e134-43b9-b425-52bacb9ff745-6646093308675746823-23-0.1" type="actor-car--5918855107799839554" depart="120.00" departLane="0" departPos="55.69" departSpeed="max" arrivalLane="0" arrivalPos="90.96">
        <route edges="gneE60 gneE60.110 gneE61"/>
    </vehicle>
    <vehicle id="-flow-random-route-4da6e0bd-5a8b-4e7c-b2f7-9acbcb9ba7fa-6646093308675746823-9-0.1" type="actor-car--5918855107799839554" depart="120.00" departLane="0" departPos="1.17" departSpeed="max" arrivalLane="0" arrivalPos="16.29">
        <route edges="gneE61 gneE62 gneE78 gneE81 gneE60.110 gneE61 gneE62 gneE69 gneE71 edge-west-WS"/>
    </vehicle>
    <vehicle id="-flow-random-route-508926e6-9526-49b8-92e9-6f80ca852bcd-6646093308675746823-27-0.1" type="actor-car--5918855107799839554" depart="120.00" departLane="0" departPos="63.78" departSpeed="max" arrivalLane="0" arrivalPos="39.79">
        <route edges="gneE71 edge-west-WS edge-south-SE edge-east-EN edge-north-NW edge-west-WS gneE60 gneE60.110 gneE61 gneE62"/>
    </vehicle>
    <vehicle id="-flow-random-route-512d4c08-2b49-4862-abae-2c631c2b3925-6646093308675746823-5-0.1" type="actor-car--5918855107799839554" depart="120.00" departLane="0" departPos="22.02" departSpeed="max" arrivalLane="1" arrivalPos="8.41">
        <route edges="gneE78 gneE81 gneE60.110"/>
    </vehicle>
    <vehicle id="-flow-random-route-599fa3ac-1cce-4248-b8eb-c92f6c849dc5-6646093308675746823-3-0.1" type="actor-car--5918855107799839554" depart="120.00" departLane="1" departPos="94.83" departSpeed="max" arrivalLane="1" arrivalPos="14.46">
        <route edges="gneE78.64 gneE80 edge-east-EN edge-north-NW edge-west-WS edge-south-SE"/>
    </vehicle>
    <vehicle id="-flow-random-route-5a955d21-20de-4a15-af3d-0ad1897297ae-6646093308675746823-21-0.1" type="actor-car--5918855107799839554" depart="120.00" departLane="0" departPos="101.18" departSpeed="max" arrivalLane="1" arrivalPos="3.53">
        <route edges="gneE78.64 gneE80 edge-east-EN edge-north-NW edge-west-WS gneE60 gneE60.110 gneE61 gneE62 gneE78"/>
    </vehicle>
    <vehicle id="-flow-random-route-6df58d08-02a8-4f2e-97c4-9e997325651c-6646093308675746823-22-0.1" type="actor-car--5918855107799839554" depart="120.00" departLane="1" departPos="12.36" departSpeed="max" arrivalLane="1" arrivalPos="32.63">
        <route edges="gneE71 edge-west-WS gneE60 gneE60.110 gneE61 gneE62 gneE78 gneE78.64 gneE80 edge-east-EN"/>
    </vehicle>
    <vehicle id="-flow-random-route-73cbbc49-87cc-47d0-9d26-ebe9e6387f0e-6646093308675746823-17-0.1" type="actor-car--5918855107799839554" depart="120.00" departLane="0" departPos="52.41" departSpeed="max" arrivalLane="1" arrivalPos="40.72">
        <route edges="edge-west-WS gneE60 gneE60.110"/>
    </vehicle>
    <vehicle id="-flow-random-route-7b0b611c-b566-46bc-aeb2-eb233014635e-6646093308675746823-15-0.1" type="actor-car--5918855107799839554" depart="120.00" departLane="0" departPos="62.36" departSpeed="max" arrivalLane="1" arrivalPos="71.78">
        <route edges="gneE61 gneE62 gneE69"/>
    </vehicle>
    <vehicle id="-flow-random-route-7fe59610-1d80-4c96-b91c-a58828ff4e1e-6646093308675746823-29-0.1" type="actor-car--5918855107799839554" depart="120.00" departLane="1" departPos="82.06" departSpeed="max" arrivalLane="1" arrivalPos="33.00">
        <route edges="gneE69 gneE71 edge-west-WS edge-south-SE edge-east-EN edge-north-NW edge-west-WS gneE60 gneE60.110 gneE61"/>
    </vehicle>
    <vehicle id="-flow-random-route-8874a86c-9a4e-4a79-8b68-e66b29e62e9b-6646093308675746823-10-0.1" type="actor-car--5918855107799839554" depart="120.00" departLane="0" departPos="3.27" departSpeed="max" arrivalLane="0" arrivalPos="41.39">
        <route edges="gneE80 edge-east-EN edge-north-NW edge-west-WS gneE60 gneE60.110 gneE61 gneE62 gneE69 gneE71"/>
    </vehicle>
    <vehicle id="-flow-random-route-8920c0b4-4cc6-46e3-9c08-42920f168061-6646093308675746823-14-0.1" type="actor-car--5918855107799839554" depart="120.00" departLane="1" departPos="3.56" departSpeed="max" arrivalLane="1" arrivalPos="60.25">
        <route edges="gneE80 edge-east-EN edge-north-NW edge-west-WS gneE60 gneE60.110 gneE61 gneE62 gneE78 gneE81"/>
    </vehicle>
    <vehicle id="-flow-random-route-988b0ae3-9daf-4445-ba77-c35c03d8ea60-6646093308675746823-11-0.1" type="actor-car--5918855107799839554" depart="120.00" departLane="0" departPos="78.10" departSpeed="max" arrivalLane="0" arrivalPos="70.54">
        <route edges="gneE60 gneE60.110 gneE61 gneE62 gneE78 gneE81 gneE60.110 gneE61 gneE62 gneE69"/>
    </vehicle>
    <vehicle id="-flow-random-route-bbe9ce54-b723-46e3-ac85-e561a440b027-6646093308675746823-25-0.1" type="actor-car--5918855107799839554" depart="120.00" departLane="1" departPos="14.91" departSpeed="max" arrivalLane="1" arrivalPos="77.33">
        <route edges="edge-west-WS edge-south-SE edge-east-EN edge-north-NW edge-west-WS edge-south-SE edge-east-EN edge-north-NW edge-west-WS gneE60"/>
    </vehicle>
    <vehicle id="-flow-random-route-bd6c09dc-f2b8-4de3-ae85-d5d85ab43b83-6646093308675746823-0-0.1" type="actor-car--5918855107799839554" depart="120.00" departLane="1" departPos="49.46" departSpeed="max" arrivalLane="0" arrivalPos="11.60">
        <route edges="gneE61 gneE62 gneE78 gneE78.64 gneE80 edge-east-EN edge-north-NW edge-west-WS gneE60 gneE60.110"/>
    </vehicle>
    <vehicle id="-flow-random-route-c010037d-ad2a-4d4b-b4f7-5cbb7129fd6b-6646093308675746823-24-0.1" type="actor-car--5918855107799839554" depart="120.00" departLane="1" departPos="131.86" departSpeed="max" arrivalLane="0" arrivalPos="24.29">
        <route edges="gneE69 gneE71 edge-west-WS edge-south-SE edge-east-EN edge-north-NW"/>
    </vehicle>
    <vehicle id="-flow-random-route-c79d6aa9-87c4-4986-84a9-2a0b456c4db5-6646093308675746823-26-0.1" type="actor-car--5918855107799839554" depart="120.00" departLane="0" departPos="9.90" departSpeed="max" arrivalLane="1" arrivalPos="15.45">
        <route edges="gneE60.110 gneE61 gneE62 gneE78 gneE78.64 gneE80 edge-east-EN edge-north-NW edge-west-WS gneE60"/>
    </vehicle>
    <vehicle id="-flow-random-route-cd595353-dc15-46c8-94c4-141946e20961-6646093308675746823-7-0.1" type="actor-car--5918855107799839554" depart="120.00" departLane="0" departPos="28.40" departSpeed="max" arrivalLane="1" arrivalPos="28.54">
        <route edges="gneE78 gneE78.64 gneE80 edge-east-EN edge-north-NW edge-west-WS"/>
    </vehicle>
    <vehicle id="-flow-random-route-cecabddc-cd85-4313-89c6-7cde1a022bf5-6646093308675746823-13-0.1" type="actor-car--5918855107799839554" depart="120.00" departLane="1" departPos="93.57" departSpeed="max" arrivalLane="0" arrivalPos="3.26">
        <route edges="gneE61 gneE62 gneE78 gneE81 gneE60.110 gneE61 gneE62 gneE69 gneE71 edge-west-WS"/>
    </vehicle>
    <vehicle id="-flow-random-route-d9b5a3e4-a9e2-45d4-b6a3-5e4761238c1a-6646093308675746823-8-0.1" type="actor-car--5918855107799839554" depart="120.00" departLane="0" departPos="30.31" departSpeed="max" arrivalLane="1" arrivalPos="12.71">
        <route edges="gneE78 gneE78.64 gneE80 edge-east-EN edge-north-NW edge-west-WS"/>
    </vehicle>
    <vehicle id="-flow-random-route-e144e032-22b8-49c1-98db-8c0a0f982432-6646093308675746823-6-0.1" type="actor-car--5918855107799839554" depart="120.00" departLane="1" departPos="42.04" departSpeed="max" arrivalLane="1" arrivalPos="26.39">
        <route edges="edge-north-NW edge-west-WS gneE60"/>
    </vehicle>
    <vehicle id="-flow-random-route-e2afea08-5e39-41a7-82f7-535715336a95-6646093308675746823-2-0.1" type="actor-car--5918855107799839554" depart="120.00" departLane="0" departPos="30.78" departSpeed="max" arrivalLane="0" arrivalPos="31.12">
        <route edges="gneE61 gneE62 gneE69 gneE71 edge-west-WS edge-south-SE"/>
    </vehicle>
    <vehicle id="-flow-random-route-f062e1e3-546e-4357-b513-3de0be89c816-6646093308675746823-12-0.1" type="actor-car--5918855107799839554" depart="120.00" departLane="0" departPos="30.38" departSpeed="max" arrivalLane="0" arrivalPos="43.00">
        <route edges="gneE62 gneE78 gneE78.64 gneE80 edge-east-EN edge-north-NW"/>
    </vehicle>
    <vehicle id="-flow-random-route-073cf77a-b7e3-4132-9dfe-0ecc0157d457-6646093308675746823-4-0.2" type="actor-car--5918855107799839554" depart="240.00" departLane="1" departPos="33.08" departSpeed="max" arrivalLane="1" arrivalPos="74.45">
        <route edges="edge-west-WS edge-south-SE edge-east-EN edge-north-NW edge-west-WS edge-south-SE edge-east-EN edge-north-NW edge-west-WS gneE60"/>
    </vehicle>
    <vehicle id="-flow-random-route-0baa4a17-2671-44ed-86be-a74351815c42-6646093308675746823-18-0.2" type="actor-car--5918855107799839554" depart="240.00" departLane="0" departPos="3.31" departSpeed="max" arrivalLane="0" arrivalPos="70.01">
        <route edges="gneE69 gneE71 edge-west-WS"/>
    </vehicle>
    <vehicle id="-flow-random-route-14b3a5fa-85ee-41cd-aa96-c505bc1ec427-6646093308675746823-19-0.2" type="actor-car--5918855107799839554" depart="240.00" departLane="1" departPos="13.59" departSpeed="max" arrivalLane="0" arrivalPos="46.89">
        <route edges="edge-east-EN edge-north-NW edge-west-WS"/>
    </vehicle>
    <vehicle id="-flow-random-route-1edeacda-21e0-491d-8c0c-7a4f4183ab80-6646093308675746823-28-0.2" type="actor-car--5918855107799839554" depart="240.00" departLane="0" departPos="13.06" departSpeed="max" arrivalLane="1" arrivalPos="20.19">
        <route edges="edge-south-SE edge-east-EN edge-north-NW edge-west-WS gneE60 gneE60.110 gneE61 gneE62 gneE69 gneE71"/>
    </vehicle>
    <vehicle id="-flow-random-route-212e489a-7004-40b4-b0dd-22680519a6fa-6646093308675746823-20-0.2" type="actor-car--5918855107799839554" depart="240.00" departLane="1" departPos="35.74" departSpeed="max" arrivalLane="1" arrivalPos="63.88">
        <route edges="edge-north-NW edge-west-WS"/>
    </vehicle>
    <vehicle id="-flow-random-route-2404f030-e37f-42c9-9ba1-60c9c66c8124-6646093308675746823-1-0.2" type="actor-car--5918855107799839554" depart="240.00" departLane="0" departPos="73.53" departSpeed="max" arrivalLane="0" arrivalPos="12.51">
        <route edges="gneE71 edge-west-WS"/>
    </vehicle>
    <vehicle id="-flow-random-route-26b9acb1-ae33-46a6-92bf-8f388a0293bc-6646093308675746823-16-0.2" type="actor-car--5918855107799839554" depart="240.00" departLane="0" departPos="66.09" departSpeed="max" arrivalLane="0" arrivalPos="37.10">
        <route edges="edge-west-WS gneE60 gneE60.110"/>
    </vehicle>
    <vehicle id="-flow-random-route-2dc964ca-e134-43b9-b425-52bacb9ff745-6646093308675746823-23-0.2" type="actor-car--5918855107799839554" depart="240.00" departLane="0" departPos="55.69" departSpeed="max" arrivalLane="0" arrivalPos="90.96">
        <route edges="gneE60 gneE60.110 gneE61"/>
    </vehicle>
    <vehicle id="-flow-random-route-4da6e0bd-5a8b-4e7c-b2f7-9acbcb9ba7fa-6646093308675746823-9-0.2" type="actor-car--5918855107799839554" depart="240.00" departLane="0" departPos="1.17" departSpeed="max" arrivalLane="0" arrivalPos="16.29">
        <route edges="gneE61 gneE62 gneE78 gneE81 gneE60.110 gneE61 gneE62 gneE69 gneE71 edge-west-WS"/>
    </vehicle>
    <vehicle id="-flow-random-route-508926e6-9526-49b8-92e9-6f80ca852bcd-6646093308675746823-27-0.2" type="actor-car--5918855107799839554" depart="240.00" departLane="0" departPos="63.78" departSpeed="max" arrivalLane="0" arrivalPos="39.79">
        <route edges="gneE71 edge-west-WS edge-south-SE edge-east-EN edge-north-NW edge-west-WS gneE60 gneE60.110 gneE61 gneE62"/>
    </vehicle>
    <vehicle id="-flow-random-route-512d4c08-2b49-4862-abae-2c631c2b3925-6646093308675746823-5-0.2" type="actor-car--5918855107799839554" depart="240.00" departLane="0" departPos="22.02" departSpeed="max" arrivalLane="1" arrivalPos="8.41">
        <route edges="gneE78 gneE81 gneE60.110"/>
    </vehicle>
    <vehicle id="-flow-random-route-599fa3ac-1cce-4248-b8eb-c92f6c849dc5-6646093308675746823-3-0.2" type="actor-car--5918855107799839554" depart="240.00" departLane="1" departPos="94.83" departSpeed="max" arrivalLane="1" arrivalPos="14.46">
        <route edges="gneE78.64 gneE80 edge-east-EN edge-north-NW edge-west-WS edge-south-SE"/>
    </vehicle>
    <vehicle id="-flow-random-route-5a955d21-20de-4a15-af3d-0ad1897297ae-6646093308675746823-21-0.2" type="actor-car--5918855107799839554" depart="240.00" departLane="0" departPos="101.18" departSpeed="max" arrivalLane="1" arrivalPos="3.53">
        <route edges="gneE78.64 gneE80 edge-east-EN edge-north-NW edge-west-WS gneE60 gneE60.110 gneE61 gneE62 gneE78"/>
    </vehicle>
    <vehicle id="-flow-random-route-6df58d08-02a8-4f2e-97c4-9e997325651c-6646093308675746823-22-0.2" type="actor-car--5918855107799839554" depart="240.00" departLane="1" departPos="12.36" departSpeed="max" arrivalLane="1" arrivalPos="32.63">
        <route edges="gneE71 edge-west-WS gneE60 gneE60.110 gneE61 gneE62 gneE78 gneE78.64 gneE80 edge-east-EN"/>
    </vehicle>
    <vehicle id="-flow-random-route-73cbbc49-87cc-47d0-9d26-ebe9e6387f0e-6646093308675746823-17-0.2" type="actor-car--5918855107799839554" depart="240.00" departLane="0" departPos="52.41" departSpeed="max" arrivalLane="1" arrivalPos="40.72">
        <route edges="edge-west-WS gneE60 gneE60.110"/>
    </vehicle>
    <vehicle id="-flow-random-route-7b0b611c-b566-46bc-aeb2-eb233014635e-6646093308675746823-15-0.2" type="actor-car--5918855107799839554" depart="240.00" departLane="0" departPos="62.36" departSpeed="max" arrivalLane="1" arrivalPos="71.78">
        <route edges="gneE61 gneE62 gneE69"/>
    </vehicle>
    <vehicle id="-flow-random-route-7fe59610-1d80-4c96-b91c-a58828ff4e1e-6646093308675746823-29-0.2" type="actor-car--5918855107799839554" depart="240.00" departLane="1" departPos="82.06" departSpeed="max" arrivalLane="1" arrivalPos="33.00">
        <route edges="gneE69 gneE71 edge-west-WS edge-south-SE edge-east-EN edge-north-NW edge-west-WS gneE60 gneE60.110 gneE61"/>
    </vehicle>
    <vehicle id="-flow-random-route-8874a86c-9a4e-4a79-8b68-e66b29e62e9b-6646093308675746823-10-0.2" type="actor-car--5918855107799839554" depart="240.00" departLane="0" departPos="3.27" departSpeed="max" arrivalLane="0" arrivalPos="41.39">
        <route edges="gneE80 edge-east-EN edge-north-NW edge-west-WS gneE60 gneE60.110 gneE61 gneE62 gneE69 gneE71"/>
    </vehicle>
    <vehicle id="-flow-random-route-8920c0b4-4cc6-46e3-9c08-42920f168061-6646093308675746823-14-0.2" type="actor-car--5918855107799839554" depart="240.00" departLane="1" departPos="3.56" departSpeed="max" arrivalLane="1" arrivalPos="60.25">
        <route edges="gneE80 edge-east-EN edge-north-NW edge-west-WS gneE60 gneE60.110 gneE61 gneE62 gneE78 gneE81"/>
    </vehicle>
    <vehicle id="-flow-random-route-988b0ae3-9daf-4445-ba77-c35c03d8ea60-6646093308675746823-11-0.2" type="actor-car--5918855107799839554" depart="240.00" departLane="0" departPos="78.10" departSpeed="max" arrivalLane="0" arrivalPos="70.54">
        <route edges="gneE60 gneE60.110 gneE61 gneE62 gneE78 gneE81 gneE60.110 gneE61 gneE62 gneE69"/>
    </vehicle>
    <vehicle id="-flow-random-route-bbe9ce54-b723-46e3-ac85-e561a440b027-6646093308675746823-25-0.2" type="actor-car--5918855107799839554" depart="240.00" departLane="1" departPos="14.91" departSpeed="max" arrivalLane="1" arrivalPos="77.33">
        <route edges="edge-west-WS edge-south-SE edge-east-EN edge-north-NW edge-west-WS edge-south-SE edge-east-EN edge-north-NW edge-west-WS gneE60"/>
    </vehicle>
    <vehicle id="-flow-random-route-bd6c09dc-f2b8-4de3-ae85-d5d85ab43b83-6646093308675746823-0-0.2" type="actor-car--5918855107799839554" depart="240.00" departLane="1" departPos="49.46" departSpeed="max" arrivalLane="0" arrivalPos="11.60">