<?xml version="1.0" encoding="UTF-8"?>

<!-- generated on Fri Sep 18 07:16:34 2020 by Eclipse SUMO duarouter Version 1.6.0
<configuration xmlns:xsi="http://www.w3.org/2001/XMLSchema-instance" xsi:noNamespaceSchemaLocation="http://sumo.dlr.de/xsd/duarouterConfiguration.xsd">

    <input>
        <net-file value="dataset_public/mixed_loop/its_merge_b/map.net.xml"/>
        <route-files value="/tmp/tmp7ubv6mt_/trips.trips.xml"/>
    </input>

    <output>
        <output-file value="dataset_public/mixed_loop/its_merge_b/traffic/30_patient_car.rou.xml"/>
        <alternatives-output value="dataset_public/mixed_loop/its_merge_b/traffic/30_patient_car.rou.alt.xml"/>
    </output>

    <processing>
        <unsorted-input value="true"/>
        <repair value="true"/>
    </processing>

    <report>
        <error-log value="/tmp/smarts/_duarouter_routing/traffic/30_patient_car.log"/>
        <no-step-log value="true"/>
    </report>

    <random_number>
        <seed value="42"/>
    </random_number>

</configuration>
-->

<routes xmlns:xsi="http://www.w3.org/2001/XMLSchema-instance" xsi:noNamespaceSchemaLocation="http://sumo.dlr.de/xsd/routes_file.xsd">
    <vType id="actor-car-7365656401794845416" minGap="2.50" speedFactor="normc(0.50,0.20,0.20,2.00)" vClass="passenger" impatience="0.50" lcCooperative="0.5" lcImpatience="0" jmDriveAfterYellowTime="1.0" accel="2.6" decel="4.5" sigma="0.5"/>
    <vehicle id="-flow-random-route-0005e16e-06aa-4ce0-a988-0a892149cebc-5690393475638221549-2-0.0" type="actor-car-7365656401794845416" depart="0.00" departLane="0" departPos="70.25" departSpeed="max" arrivalLane="0" arrivalPos="68.58">
        <route edges="-gneE97 gneE93 -gneE112 -gneE110 -gneE119 -gneE118 -gneE117 -gneE112 -gneE110 -gneE121"/>
    </vehicle>
    <vehicle id="-flow-random-route-167a7c73-437f-416c-9c90-5746ae84e6ec-5690393475638221549-21-0.0" type="actor-car-7365656401794845416" depart="0.00" departLane="0" departPos="44.95" departSpeed="max" arrivalLane="0" arrivalPos="55.98">
        <route edges="-gneE93 -gneE111 gneE112 -gneE93 -gneE111 gneE112 gneE117 gneE118 gneE119 -gneE121"/>
    </vehicle>
    <vehicle id="-flow-random-route-1e0b67fe-7a38-4c19-ade3-0c9e5d2a8da6-5690393475638221549-12-0.0" type="actor-car-7365656401794845416" depart="0.00" departLane="0" departPos="81.43" departSpeed="max" arrivalLane="0" arrivalPos="172.86">
        <route edges="-gneE112 -gneE110 -gneE121 -gneE120"/>
    </vehicle>
    <vehicle id="-flow-random-route-1ed45520-e4e5-4683-a113-1f9c7690321e-5690393475638221549-9-0.0" type="actor-car-7365656401794845416" depart="0.00" departLane="0" departPos="127.94" departSpeed="max" arrivalLane="0" arrivalPos="89.36">
        <route edges="-gneE120 -gneE97 gneE93 -gneE112 gneE111 gneE97 gneE120 gneE121 gneE110 gneE112"/>
    </vehicle>
    <vehicle id="-flow-random-route-215c3468-b94a-4449-9bee-ddb030331efe-5690393475638221549-20-0.0" type="actor-car-7365656401794845416" depart="0.00" departLane="0" departPos="4.72" departSpeed="max" arrivalLane="0" arrivalPos="26.15">
        <route edges="gneE111 gneE93 -gneE112 -gneE110 -gneE119 -gneE118 -gneE117 -gneE93 -gneE111 gneE112"/>
    </vehicle>
    <vehicle id="-flow-random-route-22aabda1-674e-4e0a-bff7-536cc792ae16-5690393475638221549-27-0.0" type="actor-car-7365656401794845416" depart="0.00" departLane="0" departPos="12.65" departSpeed="max" arrivalLane="0" arrivalPos="112.26">
        <route edges="-gneE111 -gneE110 -gneE119 -gneE118 -gneE117 -gneE93 -gneE111 gneE112 gneE117 gneE118"/>
    </vehicle>
    <vehicle id="-flow-random-route-252d1659-704b-4ffc-aab6-401c2ed7e26b-5690393475638221549-1-0.0" type="actor-car-7365656401794845416" depart="0.00" departLane="0" departPos="48.02" departSpeed="max" arrivalLane="0" arrivalPos="115.38">
        <route edges="-gneE112 gneE111 gneE93 gneE117 gneE118"/>
    </vehicle>
    <vehicle id="-flow-random-route-2ac38f10-0ac5-46eb-ac2e-5b9c6fb1b701-5690393475638221549-18-0.0" type="actor-car-7365656401794845416" depart="0.00" departLane="0" departPos="26.34" departSpeed="max" arrivalLane="0" arrivalPos="153.13">
        <route edges="gneE117 gneE118"/>
    </vehicle>
    <vehicle id="-flow-random-route-2d409aa7-f097-4219-a273-7e64f7d910f6-5690393475638221549-29-0.0" type="actor-car-7365656401794845416" depart="0.00" departLane="0" departPos="155.95" departSpeed="max" arrivalLane="0" arrivalPos="36.11">
        <route edges="-gneE120 -gneE97 gneE93 -gneE112 gneE111 gneE93 gneE117 gneE118 gneE119 -gneE121"/>
    </vehicle>
    <vehicle id="-flow-random-route-3205375a-b50f-4e5e-a19e-56a5cd5954ca-5690393475638221549-11-0.0" type="actor-car-7365656401794845416" depart="0.00" departLane="0" departPos="93.59" departSpeed="max" arrivalLane="0" arrivalPos="17.89">
        <route edges="gneE121 -gneE119 -gneE118 -gneE117 -gneE93 -gneE111 gneE112 gneE117 gneE118 gneE119"/>
    </vehicle>
    <vehicle id="-flow-random-route-3e9326f4-038d-4063-b58f-3d1cc8ec43b4-5690393475638221549-0-0.0" type="actor-car-7365656401794845416" depart="0.00" departLane="0" departPos="42.50" departSpeed="max" arrivalLane="0" arrivalPos="60.97">
        <route edges="-gneE119 -gneE118 -gneE117 -gneE93 -gneE111 gneE112 gneE117 gneE118 gneE119 -gneE121"/>
    </vehicle>
    <vehicle id="-flow-random-route-4ccea05c-ae25-4720-99aa-8ed598c0ab15-5690393475638221549-19-0.0" type="actor-car-7365656401794845416" depart="0.00" departLane="0" departPos="40.83" departSpeed="max" arrivalLane="0" arrivalPos="85.95">
        <route edges="gneE120 gneE121 gneE110 gneE112 -gneE93 -gneE111 -gneE110 -gneE121 -gneE120 -gneE97"/>
    </vehicle>
    <vehicle id="-flow-random-route-4f727bb7-5d1d-401d-9ec0-031f7b0fc22b-5690393475638221549-25-0.0" type="actor-car-7365656401794845416" depart="0.00" departLane="0" departPos="25.85" departSpeed="max" arrivalLane="0" arrivalPos="80.54">
        <route edges="-gneE121 -gneE120 -gneE97 gneE93 -gneE112 gneE111 gneE93 -gneE112 gneE111 gneE97"/>
    </vehicle>
    <vehicle id="-flow-random-route-5828fe6f-7c7f-4d88-9744-6442f5a06423-5690393475638221549-14-0.0" type="actor-car-7365656401794845416" depart="0.00" departLane="0" departPos="88.89" departSpeed="max" arrivalLane="0" arrivalPos="54.95">
        <route edges="-gneE118 -gneE117 -gneE112 -gneE110"/>
    </vehicle>
    <vehicle id="-flow-random-route-599f2ac1-8d8c-4bb2-b661-42c7e0f96886-5690393475638221549-5-0.0" type="actor-car-7365656401794845416" depart="0.00" departLane="0" departPos="12.64" departSpeed="max" arrivalLane="0" arrivalPos="9.81">
        <route edges="gneE111 gneE93 -gneE112 gneE111 gneE97 gneE120 gneE121 -gneE119 -gneE118 -gneE117"/>
    </vehicle>
    <vehicle id="-flow-random-route-5b49ebf1-3186-4717-8350-705ed2182c19-5690393475638221549-4-0.0" type="actor-car-7365656401794845416" depart="0.00" departLane="0" departPos="60.05" departSpeed="max" arrivalLane="0" arrivalPos="68.78">
        <route edges="gneE93 gneE117 gneE118"/>
    </vehicle>
    <vehicle id="-flow-random-route-79b55107-3731-4f9d-8095-360d834a5bcd-5690393475638221549-3-0.0" type="actor-car-7365656401794845416" depart="0.00" departLane="0" departPos="20.90" departSpeed="max" arrivalLane="0" arrivalPos="62.42">
        <route edges="-gneE121 -gneE120 -gneE97 gneE93 gneE117 gneE118 gneE119 gneE110 gneE112 -gneE93"/>
    </vehicle>
    <vehicle id="-flow-random-route-80b5071e-304d-415c-8146-f69c994d3afe-5690393475638221549-7-0.0" type="actor-car-7365656401794845416" depart="0.00" departLane="0" departPos="65.95" departSpeed="max" arrivalLane="0" arrivalPos="7.81">
        <route edges="gneE112 -gneE93 gneE97 gneE120"/>
    </vehicle>
    <vehicle id="-flow-random-route-89c670d6-2be5-439b-acc5-609972f3654e-5690393475638221549-15-0.0" type="actor-car-7365656401794845416" depart="0.00" departLane="0" departPos="117.29" departSpeed="max" arrivalLane="0" arrivalPos="64.12">
        <route edges="-gneE119 -gneE118 -gneE117 -gneE112 gneE111 gneE93 gneE117 gneE118 gneE119 gneE110"/>
    </vehicle>
    <vehicle id="-flow-random-route-8bca3eec-55ee-4ce1-b754-00c561ba8f92-5690393475638221549-26-0.0" type="actor-car-7365656401794845416" depart="0.00" departLane="0" departPos="31.02" departSpeed="max" arrivalLane="0" arrivalPos="6.52">
        <route edges="-gneE120 -gneE97 -gneE111 -gneE110 -gneE119 -gneE118 -gneE117 -gneE93 gneE97 gneE120"/>
    </vehicle>
    <vehicle id="-flow-random-route-95d98138-df4c-4a4a-a8a4-993114f2a97a-5690393475638221549-24-0.0" type="actor-car-7365656401794845416" depart="0.00" departLane="0" departPos="60.93" departSpeed="max" arrivalLane="0" arrivalPos="55.91">
        <route edges="-gneE117 -gneE93 gneE97 gneE120 gneE121 -gneE119 -gneE118 -gneE117 -gneE112 gneE111"/>
    </vehicle>
    <vehicle id="-flow-random-route-970a71ad-052f-4178-9646-3117292d3eb9-5690393475638221549-16-0.0" type="actor-car-7365656401794845416" depart="0.00" departLane="0" departPos="32.55" departSpeed="max" arrivalLane="0" arrivalPos="144.82">
        <route edges="-gneE112 -gneE110 -gneE121 -gneE120"/>
    </vehicle>
    <vehicle id="-flow-random-route-a7ba783b-ba22-4626-82ef-fc62c9008548-5690393475638221549-6-0.0" type="actor-car-7365656401794845416" depart="0.00" departLane="0" departPos="25.00" departSpeed="max" arrivalLane="0" arrivalPos="8.56">
        <route edges="-gneE112 gneE111 gneE93 gneE117 gneE118 gneE119 gneE110 gneE111 gneE97 gneE120"/>
    </vehicle>
    <vehicle id="-flow-random-route-ada44d21-9834-48e0-91cc-0ef27c2c159c-5690393475638221549-8-0.0" type="actor-car-7365656401794845416" depart="0.00" departLane="0" departPos="14.37" departSpeed="max" arrivalLane="0" arrivalPos="44.56">
        <route edges="-gneE93 gneE97 gneE120 gneE121 gneE110"/>
    </vehicle>
    <vehicle id="-flow-random-route-cc8ead3c-87e8-4fb3-8287-c0dd8e8e9e35-5690393475638221549-13-0.0" type="actor-car-7365656401794845416" depart="0.00" departLane="0" departPos="22.04" departSpeed="max" arrivalLane="0" arrivalPos="38.70">
        <route edges="gneE117 gneE118 gneE119 -gneE121 -gneE120 -gneE97 gneE93 -gneE112 -gneE110 -gneE119"/>
    </vehicle>
    <vehicle id="-flow-random-route-d4d84409-37f0-4156-9f9e-aa8007f6f5ca-5690393475638221549-28-0.0" type="actor-car-7365656401794845416" depart="0.00" departLane="0" departPos="49.86" departSpeed="max" arrivalLane="0" arrivalPos="63.23">
        <route edges="gneE97 gneE120 gneE121 -gneE119"/>
    </vehicle>
    <vehicle id="-flow-random-route-d61121e8-0a5d-44cf-b42e-f4e772484676-5690393475638221549-23-0.0" type="actor-car-7365656401794845416" depart="0.00" departLane="0" departPos="21.69" departSpeed="max" arrivalLane="0" arrivalPos="165.19">
        <route edges="gneE112 -gneE93 -gneE111 -gneE110 -gneE119 -gneE118 -gneE117 -gneE93 gneE97 gneE120"/>
    </vehicle>
    <vehicle id="-flow-random-route-e0082f57-33d5-46e4-b022-180264a1cd46-5690393475638221549-10-0.0" type="actor-car-7365656401794845416" depart="0.00" departLane="0" departPos="70.55" departSpeed="max" arrivalLane="0" arrivalPos="15.44">
        <route edges="-gneE119 -gneE118 -gneE117 -gneE112 -gneE110 -gneE121 -gneE120 -gneE97 gneE93 gneE117"/>
    </vehicle>
    <vehicle id="-flow-random-route-ebc0210d-71ba-4f3c-b367-208cfd2d87f1-5690393475638221549-17-0.0" type="actor-car-7365656401794845416" depart="0.00" departLane="0" departPos="91.95" departSpeed="max" arrivalLane="0" arrivalPos="21.63">
        <route edges="-gneE112 -gneE110 -gneE119 -gneE118 -gneE117 -gneE93 gneE97 gneE120 gneE121 gneE110"/>
    </vehicle>
    <vehicle id="-flow-random-route-f66541b8-7908-4150-b816-2e53ce5c0a2f-5690393475638221549-22-0.0" type="actor-car-7365656401794845416" depart="0.00" departLane="0" departPos="11.64" departSpeed="max" arrivalLane="0" arrivalPos="45.61">
        <route edges="gneE93 gneE117 gneE118 gneE119 gneE110 gneE112 gneE117 gneE118 gneE119 -gneE121"/>
    </vehicle>
    <vehicle id="-flow-random-route-0005e16e-06aa-4ce0-a988-0a892149cebc-5690393475638221549-2-0.1" type="actor-car-7365656401794845416" depart="120.00" departLane="0" departPos="70.25" departSpeed="max" arrivalLane="0" arrivalPos="68.58">
        <route edges="-gneE97 gneE93 -gneE112 -gneE110 -gneE119 -gneE118 -gneE117 -gneE112 -gneE110 -gneE121"/>
    </vehicle>
    <vehicle id="-flow-random-route-167a7c73-437f-416c-9c90-5746ae84e6ec-5690393475638221549-21-0.1" type="actor-car-7365656401794845416" depart="120.00" departLane="0" departPos="44.95" departSpeed="max" arrivalLane="0" arrivalPos="55.98">
        <route edges="-gneE93 -gneE111 gneE112 -gneE93 -gneE111 gneE112 gneE117 gneE118 gneE119 -gneE121"/>
    </vehicle>
    <vehicle id="-flow-random-route-1e0b67fe-7a38-4c19-ade3-0c9e5d2a8da6-5690393475638221549-12-0.1" type="actor-car-7365656401794845416" depart="120.00" departLane="0" departPos="81.43" departSpeed="max" arrivalLane="0" arrivalPos="172.86">
        <route edges="-gneE112 -gneE110 -gneE121 -gneE120"/>
    </vehicle>
    <vehicle id="-flow-random-route-1ed45520-e4e5-4683-a113-1f9c7690321e-5690393475638221549-9-0.1" type="actor-car-7365656401794845416" depart="120.00" departLane="0" departPos="127.94" departSpeed="max" arrivalLane="0" arrivalPos="89.36">
        <route edges="-gneE120 -gneE97 gneE93 -gneE112 gneE111 gneE97 gneE120 gneE121 gneE110 gneE112"/>
    </vehicle>
    <vehicle id="-flow-random-route-215c3468-b94a-4449-9bee-ddb030331efe-5690393475638221549-20-0.1" type="actor-car-7365656401794845416" depart="120.00" departLane="0" departPos="4.72" departSpeed="max" arrivalLane="0" arrivalPos="26.15">
        <route edges="gneE111 gneE93 -gneE112 -gneE110 -gneE119 -gneE118 -gneE117 -gneE93 -gneE111 gneE112"/>
    </vehicle>
    <vehicle id="-flow-random-route-22aabda1-674e-4e0a-bff7-536cc792ae16-5690393475638221549-27-0.1" type="actor-car-7365656401794845416" depart="120.00" departLane="0" departPos="12.65" departSpeed="max" arrivalLane="0" arrivalPos="112.26">
        <route edges="-gneE111 -gneE110 -gneE119 -gneE118 -gneE117 -gneE93 -gneE111 gneE112 gneE117 gneE118"/>
    </vehicle>
    <vehicle id="-flow-random-route-252d1659-704b-4ffc-aab6-401c2ed7e26b-5690393475638221549-1-0.1" type="actor-car-7365656401794845416" depart="120.00" departLane="0" departPos="48.02" departSpeed="max" arrivalLane="0" arrivalPos="115.38">
        <route edges="-gneE112 gneE111 gneE93 gneE117 gneE118"/>
    </vehicle>
    <vehicle id="-flow-random-route-2ac38f10-0ac5-46eb-ac2e-5b9c6fb1b701-5690393475638221549-18-0.1" type="actor-car-7365656401794845416" depart="120.00" departLane="0" departPos="26.34" departSpeed="max" arrivalLane="0" arrivalPos="153.13">
        <route edges="gneE117 gneE118"/>
    </vehicle>
    <vehicle id="-flow-random-route-2d409aa7-f097-4219-a273-7e64f7d910f6-5690393475638221549-29-0.1" type="actor-car-7365656401794845416" depart="120.00" departLane="0" departPos="155.95" departSpeed="max" arrivalLane="0" arrivalPos="36.11">
        <route edges="-gneE120 -gneE97 gneE93 -gneE112 gneE111 gneE93 gneE117 gneE118 gneE119 -gneE121"/>
    </vehicle>
    <vehicle id="-flow-random-route-3205375a-b50f-4e5e-a19e-56a5cd5954ca-5690393475638221549-11-0.1" type="actor-car-7365656401794845416" depart="120.00" departLane="0" departPos="93.59" departSpeed="max" arrivalLane="0" arrivalPos="17.89">
        <route edges="gneE121 -gneE119 -gneE118 -gneE117 -gneE93 -gneE111 gneE112 gneE117 gneE118 gneE119"/>
    </vehicle>
    <vehicle id="-flow-random-route-3e9326f4-038d-4063-b58f-3d1cc8ec43b4-5690393475638221549-0-0.1" type="actor-car-7365656401794845416" depart="120.00" departLane="0" departPos="42.50" departSpeed="max" arrivalLane="0" arrivalPos="60.97">
        <route edges="-gneE119 -gneE118 -gneE117 -gneE93 -gneE111 gneE112 gneE117 gneE118 gneE119 -gneE121"/>
    </vehicle>
    <vehicle id="-flow-random-route-4ccea05c-ae25-4720-99aa-8ed598c0ab15-5690393475638221549-19-0.1" type="actor-car-7365656401794845416" depart="120.00" departLane="0" departPos="40.83" departSpeed="max" arrivalLane="0" arrivalPos="85.95">
        <route edges="gneE120 gneE121 gneE110 gneE112 -gneE93 -gneE111 -gneE110 -gneE121 -gneE120 -gneE97"/>
    </vehicle>
    <vehicle id="-flow-random-route-4f727bb7-5d1d-401d-9ec0-031f7b0fc22b-5690393475638221549-25-0.1" type="actor-car-7365656401794845416" depart="120.00" departLane="0" departPos="25.85" departSpeed="max" arrivalLane="0" arrivalPos="80.54">
        <route edges="-gneE121 -gneE120 -gneE97 gneE93 -gneE112 gneE111 gneE93 -gneE112 gneE111 gneE97"/>
    </vehicle>
    <vehicle id="-flow-random-route-5828fe6f-7c7f-4d88-9744-6442f5a06423-5690393475638221549-14-0.1" type="actor-car-7365656401794845416" depart="120.00" departLane="0" departPos="88.89" departSpeed="max" arrivalLane="0" arrivalPos="54.95">
        <route edges="-gneE118 -gneE117 -gneE112 -gneE110"/>
    </vehicle>
    <vehicle id="-flow-random-route-599f2ac1-8d8c-4bb2-b661-42c7e0f96886-5690393475638221549-5-0.1" type="actor-car-7365656401794845416" depart="120.00" departLane="0" departPos="12.64" departSpeed="max" arrivalLane="0" arrivalPos="9.81">
        <route edges="gneE111 gneE93 -gneE112 gneE111 gneE97 gneE120 gneE121 -gneE119 -gneE118 -gneE117"/>
    </vehicle>
    <vehicle id="-flow-random-route-5b49ebf1-3186-4717-8350-705ed2182c19-5690393475638221549-4-0.1" type="actor-car-7365656401794845416" depart="120.00" departLane="0" departPos="60.05" departSpeed="max" arrivalLane="0" arrivalPos="68.78">
        <route edges="gneE93 gneE117 gneE118"/>
    </vehicle>
    <vehicle id="-flow-random-route-79b55107-3731-4f9d-8095-360d834a5bcd-5690393475638221549-3-0.1" type="actor-car-7365656401794845416" depart="120.00" departLane="0" departPos="20.90" departSpeed="max" arrivalLane="0" arrivalPos="62.42">
        <route edges="-gneE121 -gneE120 -gneE97 gneE93 gneE117 gneE118 gneE119 gneE110 gneE112 -gneE93"/>
    </vehicle>
    <vehicle id="-flow-random-route-80b5071e-304d-415c-8146-f69c994d3afe-5690393475638221549-7-0.1" type="actor-car-7365656401794845416" depart="120.00" departLane="0" departPos="65.95" departSpeed="max" arrivalLane="0" arrivalPos="7.81">
        <route edges="gneE112 -gneE93 gneE97 gneE120"/>
    </vehicle>
    <vehicle id="-flow-random-route-89c670d6-2be5-439b-acc5-609972f3654e-5690393475638221549-15-0.1" type="actor-car-7365656401794845416" depart="120.00" departLane="0" departPos="117.29" departSpeed="max" arrivalLane="0" arrivalPos="64.12">
        <route edges="-gneE119 -gneE118 -gneE117 -gneE112 gneE111 gneE93 gneE117 gneE118 gneE119 gneE110"/>
    </vehicle>
    <vehicle id="-flow-random-route-8bca3eec-55ee-4ce1-b754-00c561ba8f92-5690393475638221549-26-0.1" type="actor-car-7365656401794845416" depart="120.00" departLane="0" departPos="31.02" departSpeed="max" arrivalLane="0" arrivalPos="6.52">
        <route edges="-gneE120 -gneE97 -gneE111 -gneE110 -gneE119 -gneE118 -gneE117 -gneE93 gneE97 gneE120"/>
    </vehicle>
    <vehicle id="-flow-random-route-95d98138-df4c-4a4a-a8a4-993114f2a97a-5690393475638221549-24-0.1" type="actor-car-7365656401794845416" depart="120.00" departLane="0" departPos="60.93" departSpeed="max" arrivalLane="0" arrivalPos="55.91">
        <route edges="-gneE117 -gneE93 gneE97 gneE120 gneE121 -gneE119 -gneE118 -gneE117 -gneE112 gneE111"/>
    </vehicle>
    <vehicle id="-flow-random-route-970a71ad-052f-4178-9646-3117292d3eb9-5690393475638221549-16-0.1" type="actor-car-7365656401794845416" depart="120.00" departLane="0" departPos="32.55" departSpeed="max" arrivalLane="0" arrivalPos="144.82">
        <route edges="-gneE112 -gneE110 -gneE121 -gneE120"/>
    </vehicle>
    <vehicle id="-flow-random-route-a7ba783b-ba22-4626-82ef-fc62c9008548-5690393475638221549-6-0.1" type="actor-car-7365656401794845416" depart="120.00" departLane="0" departPos="25.00" departSpeed="max" arrivalLane="0" arrivalPos="8.56">
        <route edges="-gneE112 gneE111 gneE93 gneE117 gneE118 gneE119 gneE110 gneE111 gneE97 gneE120"/>
    </vehicle>
    <vehicle id="-flow-random-route-ada44d21-9834-48e0-91cc-0ef27c2c159c-5690393475638221549-8-0.1" type="actor-car-7365656401794845416" depart="120.00" departLane="0" departPos="14.37" departSpeed="max" arrivalLane="0" arrivalPos="44.56">
        <route edges="-gneE93 gneE97 gneE120 gneE121 gneE110"/>
    </vehicle>
    <vehicle id="-flow-random-route-cc8ead3c-87e8-4fb3-8287-c0dd8e8e9e35-5690393475638221549-13-0.1" type="actor-car-7365656401794845416" depart="120.00" departLane="0" departPos="22.04" departSpeed="max" arrivalLane="0" arrivalPos="38.70">
        <route edges="gneE117 gneE118 gneE119 -gneE121 -gneE120 -gneE97 gneE93 -gneE112 -gneE110 -gneE119"/>
    </vehicle>
    <vehicle id="-flow-random-route-d4d84409-37f0-4156-9f9e-aa8007f6f5ca-5690393475638221549-28-0.1" type="actor-car-7365656401794845416" depart="120.00" departLane="0" departPos="49.86" departSpeed="max" arrivalLane="0" arrivalPos="63.23">
        <route edges="gneE97 gneE120 gneE121 -gneE119"/>
    </vehicle>
    <vehicle id="-flow-random-route-d61121e8-0a5d-44cf-b42e-f4e772484676-5690393475638221549-23-0.1" type="actor-car-7365656401794845416" depart="120.00" departLane="0" departPos="21.69" departSpeed="max" arrivalLane="0" arrivalPos="165.19">
        <route edges="gneE112 -gneE93 -gneE111 -gneE110 -gneE119 -gneE118 -gneE117 -gneE93 gneE97 gneE120"/>
    </vehicle>
    <vehicle id="-flow-random-route-e0082f57-33d5-46e4-b022-180264a1cd46-5690393475638221549-10-0.1" type="actor-car-7365656401794845416" depart="120.00" departLane="0" departPos="70.55" departSpeed="max" arrivalLane="0" arrivalPos="15.44">
        <route edges="-gneE119 -gneE118 -gneE117 -gneE112 -gneE110 -gneE121 -gneE120 -gneE97 gneE93 gneE117"/>
    </vehicle>
    <vehicle id="-flow-random-route-ebc0210d-71ba-4f3c-b367-208cfd2d87f1-5690393475638221549-17-0.1" type="actor-car-7365656401794845416" depart="120.00" departLane="0" departPos="91.95" departSpeed="max" arrivalLane="0" arrivalPos="21.63">
        <route edges="-gneE112 -gneE110 -gneE119 -gneE118 -gneE117 -gneE93 gneE97 gneE120 gneE121 gneE110"/>
    </vehicle>
    <vehicle id="-flow-random-route-f66541b8-7908-4150-b816-2e53ce5c0a2f-5690393475638221549-22-0.1" type="actor-car-7365656401794845416" depart="120.00" departLane="0" departPos="11.64" departSpeed="max" arrivalLane="0" arrivalPos="45.61">
        <route edges="gneE93 gneE117 gneE118 gneE119 gneE110 gneE112 gneE117 gneE118 gneE119 -gneE121"/>
    </vehicle>
    <vehicle id="-flow-random-route-0005e16e-06aa-4ce0-a988-0a892149cebc-5690393475638221549-2-0.2" type="actor-car-7365656401794845416" depart="240.00" departLane="0" departPos="70.25" departSpeed="max" arrivalLane="0" arrivalPos="68.58">
        <route edges="-gneE97 gneE93 -gneE112 -gneE110 -gneE119 -gneE118 -gneE117 -gneE112 -gneE110 -gneE121"/>
    </vehicle>
    <vehicle id="-flow-random-route-167a7c73-437f-416c-9c90-5746ae84e6ec-5690393475638221549-21-0.2" type="actor-car-7365656401794845416" depart="240.00" departLane="0" departPos="44.95" departSpeed="max" arrivalLane="0" arrivalPos="55.98">
        <route edges="-gneE93 -gneE111 gneE112 -gneE93 -gneE111 gneE112 gneE117 gneE118 gneE119 -gneE121"/>
    </vehicle>
    <vehicle id="-flow-random-route-1e0b67fe-7a38-4c19-ade3-0c9e5d2a8da6-5690393475638221549-12-0.2" type="actor-car-7365656401794845416" depart="240.00" departLane="0" departPos="81.43" departSpeed="max" arrivalLane="0" arrivalPos="172.86">
        <route edges="-gneE112 -gneE110 -gneE121 -gneE120"/>
    </vehicle>
    <vehicle id="-flow-random-route-1ed45520-e4e5-4683-a113-1f9c7690321e-5690393475638221549-9-0.2" type="actor-car-7365656401794845416" depart="240.00" departLane="0" departPos="127.94" departSpeed="max" arrivalLane="0" arrivalPos="89.36">
        <route edges="-gneE120 -gneE97 gneE93 -gneE112 gneE111 gneE97 gneE120 gneE121 gneE110 gneE112"/>
    </vehicle>
    <vehicle id="-flow-random-route-215c3468-b94a-4449-9bee-ddb030331efe-5690393475638221549-20-0.2" type="actor-car-7365656401794845416" depart="240.00" departLane="0" departPos="4.72" departSpeed="max" arrivalLane="0" arrivalPos="26.15">
        <route edges="gneE111 gneE93 -gneE112 -gneE110 -gneE119 -gneE118 -gneE117 -gneE93 -gneE111 gneE112"/>
    </vehicle>
    <vehicle id="-flow-random-route-22aabda1-674e-4e0a-bff7-536cc792ae16-5690393475638221549-27-0.2" type="actor-car-7365656401794845416" depart="240.00" departLane="0" departPos="12.65" departSpeed="max" arrivalLane="0" arrivalPos="112.26">
        <route edges="-gneE111 -gneE110 -gneE119 -gneE118 -gneE117 -gneE93 -gneE111 gneE112 gneE117 gneE118"/>
    </vehicle>
    <vehicle id="-flow-random-route-252d1659-704b-4ffc-aab6-401c2ed7e26b-5690393475638221549-1-0.2" type="actor-car-7365656401794845416" depart="240.00" departLane="0" departPos="48.02" departSpeed="max" arrivalLane="0" arrivalPos="115.38">
        <route edges="-gneE112 gneE111 gneE93 gneE117 gneE118"/>
    </vehicle>
    <vehicle id="-flow-random-route-2ac38f10-0ac5-46eb-ac2e-5b9c6fb1b701-5690393475638221549-18-0.2" type="actor-car-7365656401794845416" depart="240.00" departLane="0" departPos="26.34" departSpeed="max" arrivalLane="0" arrivalPos="153.13">
        <route edges="gneE117 gneE118"/>
    </vehicle>
    <vehicle id="-flow-random-route-2d409aa7-f097-4219-a273-7e64f7d910f6-5690393475638221549-29-0.2" type="actor-car-7365656401794845416" depart="240.00" departLane="0" departPos="155.95" departSpeed="max" arrivalLane="0" arrivalPos="36.11">
        <route edges="-gneE120 -gneE97 gneE93 -gneE112 gneE111 gneE93 gneE117 gneE118 gneE119 -gneE121"/>
    </vehicle>
    <vehicle id="-flow-random-route-3205375a-b50f-4e5e-a19e-56a5cd5954ca-5690393475638221549-11-0.2" type="actor-car-7365656401794845416" depart="240.00" departLane="0" departPos="93.59" departSpeed="max" arrivalLane="0" arrivalPos="17.89">
        <route edges="gneE121 -gneE119 -gneE118 -gneE117 -gneE93 -gneE111 gneE112 gneE117 gneE118 gneE119"/>
    </vehicle>
    <vehicle id="-flow-random-route-3e9326f4-038d-4063-b58f-3d1cc8ec43b4-5690393475638221549-0-0.2" type="actor-car-7365656401794845416" depart="240.00" departLane="0" departPos="42.50" departSpeed="max" arrivalLane="0" arrivalPos="60.97">
        <route edges="-gneE119 -gneE118 -gneE117 -gneE93 -gneE111 gneE112 gneE117 gneE118 gneE119 -gneE121"/>
    </vehicle>
    <vehicle id="-flow-random-route-4ccea05c-ae25-4720-99aa-8ed598c0ab15-5690393475638221549-19-0.2" type="actor-car-7365656401794845416" depart="240.00" departLane="0" departPos="40.83" departSpeed="max" arrivalLane="0" arrivalPos="85.95">
        <route edges="gneE120 gneE121 gneE110 gneE112 -gneE93 -gneE111 -gneE110 -gneE121 -gneE120 -gneE97"/>
    </vehicle>
    <vehicle id="-flow-random-route-4f727bb7-5d1d-401d-9ec0-031f7b0fc22b-5690393475638221549-25-0.2" type="actor-car-7365656401794845416" depart="240.00" departLane="0" departPos="25.85" departSpeed="max" arrivalLane="0" arrivalPos="80.54">
        <route edges="-gneE121 -gneE120 -gneE97 gneE93 -gneE112 gneE111 gneE93 -gneE112 gneE111 gneE97"/>
    </vehicle>
    <vehicle id="-flow-random-route-5828fe6f-7c7f-4d88-9744-6442f5a06423-5690393475638221549-14-0.2" type="actor-car-7365656401794845416" depart="240.00" departLane="0" departPos="88.89" departSpeed="max" arrivalLane="0" arrivalPos="54.95">
        <route edges="-gneE118 -gneE117 -gneE112 -gneE110"/>
    </vehicle>
    <vehicle id="-flow-random-route-599f2ac1-8d8c-4bb2-b661-42c7e0f96886-5690393475638221549-5-0.2" type="actor-car-7365656401794845416" depart="240.00" departLane="0" departPos="12.64" departSpeed="max" arrivalLane="0" arrivalPos="9.81">
        <route edges="gneE111 gneE93 -gneE112 gneE111 gneE97 gneE120 gneE121 -gneE119 -gneE118 -gneE117"/>
    </vehicle>
    <vehicle id="-flow-random-route-5b49ebf1-3186-4717-8350-705ed2182c19-5690393475638221549-4-0.2" type="actor-car-7365656401794845416" depart="240.00" departLane="0" departPos="60.05" departSpeed="max" arrivalLane="0" arrivalPos="68.78">
        <route edges="gneE93 gneE117 gneE118"/>
    </vehicle>
    <vehicle id="-flow-random-route-79b55107-3731-4f9d-8095-360d834a5bcd-5690393475638221549-3-0.2" type="actor-car-7365656401794845416" depart="240.00" departLane="0" departPos="20.90" departSpeed="max" arrivalLane="0" arrivalPos="62.42">
        <route edges="-gneE121 -gneE120 -gneE97 gneE93 gneE117 gneE118 gneE119 gneE110 gneE112 -gneE93"/>
    </vehicle>
    <vehicle id="-flow-random-route-80b5071e-304d-415c-8146-f69c994d3afe-5690393475638221549-7-0.2" type="actor-car-7365656401794845416" depart="240.00" departLane="0" departPos="65.95" departSpeed="max" arrivalLane="0" arrivalPos="7.81">
        <route edges="gneE112 -gneE93 gneE97 gneE120"/>
    </vehicle>
    <vehicle id="-flow-random-route-89c670d6-2be5-439b-acc5-609972f3654e-5690393475638221549-15-0.2" type="actor-car-7365656401794845416" depart="240.00" departLane="0" departPos="117.29" departSpeed="max" arrivalLane="0" arrivalPos="64.12">
        <route edges="-gneE119 -gneE118 -gneE117 -gneE112 gneE111 gneE93 gneE117 gneE118 gneE119 gneE110"/>
    </vehicle>
    <vehicle id="-flow-random-route-8bca3eec-55ee-4ce1-b754-00c561ba8f92-5690393475638221549-26-0.2" type="actor-car-7365656401794845416" depart="240.00" departLane="0" departPos="31.02" departSpeed="max" arrivalLane="0" arrivalPos="6.52">
        <route edges="-gneE120 -gneE97 -gneE111 -gneE110 -gneE119 -gneE118 -gneE117 -gneE93 gneE97 gneE120"/>
    </vehicle>
    <vehicle id="-flow-random-route-95d98138-df4c-4a4a-a8a4-993114f2a97a-5690393475638221549-24-0.2" type="actor-car-7365656401794845416" depart="240.00" departLane="0" departPos="60.93" departSpeed="max" arrivalLane="0" arrivalPos="55.91">
        <route edges="-gneE117 -gneE93 gneE97 gneE120 gneE121 -gneE119 -gneE118 -gneE117 -gneE112 gneE111"/>
    </vehicle>
    <vehicle id="-flow-random-route-970a71ad-052f-4178-9646-3117292d3eb9-5690393475638221549-16-0.2" type="actor-car-7365656401794845416" depart="240.00" departLane="0" departPos="32.55" departSpeed="max" arrivalLane="0" arrivalPos="144.82">
        <route edges="-gneE112 -gneE110 -gneE121 -gneE120"/>
    </vehicle>