<?xml version="1.0" encoding="UTF-8"?>

<!-- generated on Thu Nov 12 06:50:56 2020 by Eclipse SUMO duarouter Version 1.6.0
<configuration xmlns:xsi="http://www.w3.org/2001/XMLSchema-instance" xsi:noNamespaceSchemaLocation="http://sumo.dlr.de/xsd/duarouterConfiguration.xsd">

    <input>
        <net-file value="dataset/intersection_4lane_sv_up/map.net.xml"/>
        <route-files value="/tmp/tmp8h7p95mg/trips.trips.xml"/>
    </input>

    <output>
        <output-file value="dataset/intersection_4lane_sv_up/traffic/horizontal.rou.xml"/>
        <alternatives-output value="dataset/intersection_4lane_sv_up/traffic/horizontal.rou.alt.xml"/>
    </output>

    <processing>
        <unsorted-input value="true"/>
        <repair value="true"/>
    </processing>

    <report>
        <error-log value="/tmp/smarts/_duarouter_routing/traffic/horizontal.log"/>
        <no-step-log value="true"/>
    </report>

    <random_number>
        <seed value="42"/>
    </random_number>

</configuration>
-->

<routes xmlns:xsi="http://www.w3.org/2001/XMLSchema-instance" xsi:noNamespaceSchemaLocation="http://sumo.dlr.de/xsd/routes_file.xsd">
    <vType id="actor-car--101410945166495775" minGap="2.50" speedFactor="normc(1.00,0.20,0.20,2.00)" vClass="passenger" impatience="1.00" lcCooperative="0.25" lcImpatience="1" jmDriveAfterYellowTime="1.0" jmDriveAfterRedTime="1.5" accel="2.6" decel="4.5" sigma="0.5"/>
    <vehicle id="car-flow-route-edge-east-EW_0_random-edge-west-EW_0_random-1374558094105403020--882587037568759420--1-0.0" type="actor-car--101410945166495775" depart="0.00" departLane="0" departPos="random" departSpeed="max" arrivalLane="0" arrivalPos="random">
        <route edges="edge-east-EW edge-west-EW"/>
    </vehicle>
    <vType id="actor-car--7759565710839559330" minGap="2.50" speedFactor="normc(0.80,0.20,0.20,2.00)" vClass="passenger" impatience="0.50" lcCooperative="0.5" lcImpatience="0" jmDriveAfterYellowTime="1.0" accel="2.6" decel="4.5" sigma="0.5"/>
    <vehicle id="car-flow-route-edge-east-EW_0_random-edge-west-EW_0_random-1374558094105403020--882587037568759420--1-1.0" type="actor-car--7759565710839559330" depart="0.00" departLane="0" departPos="random" departSpeed="max" arrivalLane="0" arrivalPos="random">
        <route edges="edge-east-EW edge-west-EW"/>
    </vehicle>
    <vehicle id="car-flow-route-edge-west-WE_0_random-edge-east-WE_0_random-4972897477035103855--882587037568759420--0-0.0" type="actor-car--101410945166495775" depart="0.00" departLane="0" departPos="random" departSpeed="max" arrivalLane="0" arrivalPos="random">
        <route edges="edge-west-WE edge-east-WE"/>
    </vehicle>
    <vehicle id="car-flow-route-edge-west-WE_0_random-edge-east-WE_0_random-4972897477035103855--882587037568759420--0-1.0" type="actor-car--7759565710839559330" depart="0.00" departLane="0" departPos="random" departSpeed="max" arrivalLane="0" arrivalPos="random">
        <route edges="edge-west-WE edge-east-WE"/>
    </vehicle>
</routes>
