<?xml version="1.0" encoding="UTF-8"?>

<!-- generated on Fri Sep 18 07:58:27 2020 by Eclipse SUMO duarouter Version 1.6.0
<configuration xmlns:xsi="http://www.w3.org/2001/XMLSchema-instance" xsi:noNamespaceSchemaLocation="http://sumo.dlr.de/xsd/duarouterConfiguration.xsd">

    <input>
        <net-file value="dataset_public/simple_loop/simpleloop_b/map.net.xml"/>
        <route-files value="/tmp/tmpvxihlrap/trips.trips.xml"/>
    </input>

    <output>
        <output-file value="dataset_public/simple_loop/simpleloop_b/traffic/30_patient_car.rou.xml"/>
        <alternatives-output value="dataset_public/simple_loop/simpleloop_b/traffic/30_patient_car.rou.alt.xml"/>
    </output>

    <processing>
        <unsorted-input value="true"/>
        <repair value="true"/>
    </processing>

    <report>
        <error-log value="/tmp/smarts/_duarouter_routing/traffic/30_patient_car.log"/>
        <no-step-log value="true"/>
    </report>

    <random_number>
        <seed value="42"/>
    </random_number>

</configuration>
-->

<routes xmlns:xsi="http://www.w3.org/2001/XMLSchema-instance" xsi:noNamespaceSchemaLocation="http://sumo.dlr.de/xsd/routes_file.xsd">
    <vType id="actor-car-2658870462139227630" minGap="2.50" speedFactor="normc(0.50,0.20,0.20,2.00)" vClass="passenger" impatience="0.50" lcCooperative="0.5" lcImpatience="0" jmDriveAfterYellowTime="1.0" accel="2.6" decel="4.5" sigma="0.5"/>
    <vehicle id="-flow-random-route-04af07b6-4cc6-48a1-a3cf-3874e17405f6--7150568928351298413-9-0.0" type="actor-car-2658870462139227630" depart="0.00" departLane="1" departPos="18.71" departSpeed="max" arrivalLane="2" arrivalPos="253.27">
        <route edges="edge0 edge1"/>
    </vehicle>
    <vehicle id="-flow-random-route-0da1c677-45d0-42d7-afbf-87ae713ae2a9--7150568928351298413-11-0.0" type="actor-car-2658870462139227630" depart="0.00" departLane="0" departPos="49.52" departSpeed="max" arrivalLane="2" arrivalPos="29.81">
        <route edges="edge0 edge1"/>
    </vehicle>
    <vehicle id="-flow-random-route-12f65408-1240-45ed-a8f0-dd29bfe69f26--7150568928351298413-5-0.0" type="actor-car-2658870462139227630" depart="0.00" departLane="0" departPos="23.82" departSpeed="max" arrivalLane="0" arrivalPos="427.60">
        <route edges="edge0 edge1"/>
    </vehicle>
    <vehicle id="-flow-random-route-136f2103-35e9-4677-bbe4-7bbb0e4097e9--7150568928351298413-3-0.0" type="actor-car-2658870462139227630" depart="0.00" departLane="1" departPos="24.37" departSpeed="max" arrivalLane="1" arrivalPos="407.68">
        <route edges="edge0 edge1"/>
    </vehicle>
    <vehicle id="-flow-random-route-1ffffa8d-3773-42d5-9a81-9dfdb4a304b2--7150568928351298413-17-0.0" type="actor-car-2658870462139227630" depart="0.00" departLane="2" departPos="80.08" departSpeed="max" arrivalLane="2" arrivalPos="34.91">
        <route edges="edge0 edge1"/>
    </vehicle>
    <vehicle id="-flow-random-route-2144e360-aec7-4030-a7a5-35b59a07c66d--7150568928351298413-8-0.0" type="actor-car-2658870462139227630" depart="0.00" departLane="2" departPos="55.19" departSpeed="max" arrivalLane="1" arrivalPos="154.60">
        <route edges="edge0 edge1"/>
    </vehicle>
    <vehicle id="-flow-random-route-243a5290-23ae-414d-94b3-daaa43874dc1--7150568928351298413-21-0.0" type="actor-car-2658870462139227630" depart="0.00" departLane="2" departPos="452.58" departSpeed="max" arrivalLane="2" arrivalPos="58.73">
        <route edges="edge1 edge0"/>
    </vehicle>
    <vehicle id="-flow-random-route-2e05d154-8f32-420f-b309-c6fbb6d33121--7150568928351298413-19-0.0" type="actor-car-2658870462139227630" depart="0.00" departLane="2" departPos="4.63" departSpeed="max" arrivalLane="2" arrivalPos="481.23">
        <route edges="edge0 edge1"/>
    </vehicle>
    <vehicle id="-flow-random-route-366dab3f-57d3-4747-a3e1-d739d2d06b25--7150568928351298413-22-0.0" type="actor-car-2658870462139227630" depart="0.00" departLane="0" departPos="323.34" departSpeed="max" arrivalLane="1" arrivalPos="84.24">
        <route edges="edge1 edge0"/>
    </vehicle>
    <vehicle id="-flow-random-route-3aa626ce-b09c-4815-b827-1bad1c6543b8--7150568928351298413-25-0.0" type="actor-car-2658870462139227630" depart="0.00" departLane="2" departPos="479.09" departSpeed="max" arrivalLane="0" arrivalPos="63.38">
        <route edges="edge1 edge0"/>
    </vehicle>
    <vehicle id="-flow-random-route-40231f98-f75f-467a-b165-0abfc22ccbde--7150568928351298413-28-0.0" type="actor-car-2658870462139227630" depart="0.00" departLane="0" departPos="73.93" departSpeed="max" arrivalLane="0" arrivalPos="80.50">
        <route edges="edge0 edge1"/>
    </vehicle>
    <vehicle id="-flow-random-route-43d769f4-9a78-4c6a-af18-fc65b5a30169--7150568928351298413-14-0.0" type="actor-car-2658870462139227630" depart="0.00" departLane="0" departPos="62.98" departSpeed="max" arrivalLane="1" arrivalPos="382.56">
        <route edges="edge0 edge1"/>
    </vehicle>
    <vehicle id="-flow-random-route-48eea0d5-fb31-4bb5-9c45-5a6c7940abfb--7150568928351298413-13-0.0" type="actor-car-2658870462139227630" depart="0.00" departLane="1" departPos="34.30" departSpeed="max" arrivalLane="0" arrivalPos="103.16">
        <route edges="edge0 edge1"/>
    </vehicle>
    <vehicle id="-flow-random-route-51b5f35f-ecc2-42c7-a820-70fb96d19b5c--7150568928351298413-24-0.0" type="actor-car-2658870462139227630" depart="0.00" departLane="1" departPos="59.61" departSpeed="max" arrivalLane="2" arrivalPos="62.24">
        <route edges="edge0 edge1"/>
    </vehicle>
    <vehicle id="-flow-random-route-5509afd2-6e3c-40b1-8e4f-33106906802f--7150568928351298413-18-0.0" type="actor-car-2658870462139227630" depart="0.00" departLane="2" departPos="64.58" departSpeed="max" arrivalLane="2" arrivalPos="98.36">
        <route edges="edge0 edge1"/>
    </vehicle>
    <vehicle id="-flow-random-route-5c51fa66-ab29-456f-8ce3-2966f3d66531--7150568928351298413-27-0.0" type="actor-car-2658870462139227630" depart="0.00" departLane="1" departPos="58.62" departSpeed="max" arrivalLane="2" arrivalPos="21.05">
        <route edges="edge1 edge0"/>
    </vehicle>
    <vehicle id="-flow-random-route-60940155-2fab-4db6-8a26-e3b18094c5d4--7150568928351298413-20-0.0" type="actor-car-2658870462139227630" depart="0.00" departLane="0" departPos="22.60" departSpeed="max" arrivalLane="1" arrivalPos="52.26">
        <route edges="edge1 edge0"/>
    </vehicle>
    <vehicle id="-flow-random-route-61b9973d-5586-439d-a628-b2b1562bdc80--7150568928351298413-2-0.0" type="actor-car-2658870462139227630" depart="0.00" departLane="1" departPos="216.02" departSpeed="max" arrivalLane="2" arrivalPos="18.27">
        <route edges="edge1 edge0"/>
    </vehicle>
    <vehicle id="-flow-random-route-7909c924-af93-4d44-a377-14fed0d2495a--7150568928351298413-6-0.0" type="actor-car-2658870462139227630" depart="0.00" departLane="1" departPos="15.27" departSpeed="max" arrivalLane="1" arrivalPos="18.71">
        <route edges="edge0 edge1"/>
    </vehicle>
    <vehicle id="-flow-random-route-95893e65-30c4-4a3d-bf93-03fa58c03de3--7150568928351298413-0-0.0" type="actor-car-2658870462139227630" depart="0.00" departLane="2" departPos="11.31" departSpeed="max" arrivalLane="2" arrivalPos="281.75">
        <route edges="edge0 edge1"/>
    </vehicle>
    <vehicle id="-flow-random-route-a3fa52ab-e893-4028-8962-bbbfb30bfed8--7150568928351298413-16-0.0" type="actor-car-2658870462139227630" depart="0.00" departLane="0" departPos="247.10" departSpeed="max" arrivalLane="0" arrivalPos="47.99">
        <route edges="edge1 edge0"/>
    </vehicle>
    <vehicle id="-flow-random-route-a817737c-c401-412f-ad5a-9421cdf54b2b--7150568928351298413-1-0.0" type="actor-car-2658870462139227630" depart="0.00" departLane="1" departPos="49.98" departSpeed="max" arrivalLane="1" arrivalPos="8.27">
        <route edges="edge1 edge0"/>
    </vehicle>
    <vehicle id="-flow-random-route-be13c9f1-4412-4247-83bf-cb16e967f63f--7150568928351298413-7-0.0" type="actor-car-2658870462139227630" depart="0.00" departLane="2" departPos="102.99" departSpeed="max" arrivalLane="1" arrivalPos="17.41">
        <route edges="edge1 edge0"/>
    </vehicle>
    <vehicle id="-flow-random-route-d2ca0f3d-5ed9-4fa4-b368-7a6854f60c7b--7150568928351298413-12-0.0" type="actor-car-2658870462139227630" depart="0.00" departLane="1" departPos="117.08" departSpeed="max" arrivalLane="0" arrivalPos="75.07">
        <route edges="edge1 edge0"/>
    </vehicle>
    <vehicle id="-flow-random-route-d7f14a68-af18-492d-99bd-03e57e126f20--7150568928351298413-15-0.0" type="actor-car-2658870462139227630" depart="0.00" departLane="2" departPos="270.85" departSpeed="max" arrivalLane="2" arrivalPos="18.83">
        <route edges="edge1 edge0"/>
    </vehicle>
    <vehicle id="-flow-random-route-d7fb7339-2bcf-435e-8914-de4fdc288dd7--7150568928351298413-29-0.0" type="actor-car-2658870462139227630" depart="0.00" departLane="2" departPos="195.29" departSpeed="max" arrivalLane="0" arrivalPos="85.27">
        <route edges="edge1 edge0"/>
    </vehicle>
    <vehicle id="-flow-random-route-dc11e9b2-3f57-42d5-9774-3a84d50d6093--7150568928351298413-23-0.0" type="actor-car-2658870462139227630" depart="0.00" departLane="2" departPos="65.15" departSpeed="max" arrivalLane="2" arrivalPos="446.25">
        <route edges="edge0 edge1"/>
    </vehicle>
    <vehicle id="-flow-random-route-e973beb9-9b9b-4971-af5f-25da32435f0c--7150568928351298413-4-0.0" type="actor-car-2658870462139227630" depart="0.00" departLane="1" departPos="149.23" departSpeed="max" arrivalLane="0" arrivalPos="19.06">
        <route edges="edge1 edge0"/>
    </vehicle>
    <vehicle id="-flow-random-route-ea4fc04c-360b-43f6-9f4d-602bab1adcc8--7150568928351298413-26-0.0" type="actor-car-2658870462139227630" depart="0.00" departLane="2" departPos="85.17" departSpeed="max" arrivalLane="2" arrivalPos="122.93">
        <route edges="edge0 edge1"/>
    </vehicle>
    <vehicle id="-flow-random-route-ed0fba06-b1ed-4058-81c1-65d759f80ed0--7150568928351298413-10-0.0" type="actor-car-2658870462139227630" depart="0.00" departLane="1" departPos="178.30" departSpeed="max" arrivalLane="0" arrivalPos="76.86">
        <route edges="edge1 edge0"/>
    </vehicle>
    <vehicle id="-flow-random-route-04af07b6-4cc6-48a1-a3cf-3874e17405f6--7150568928351298413-9-0.1" type="actor-car-2658870462139227630" depart="120.00" departLane="1" departPos="18.71" departSpeed="max" arrivalLane="2" arrivalPos="253.27">
        <route edges="edge0 edge1"/>
    </vehicle>
    <vehicle id="-flow-random-route-0da1c677-45d0-42d7-afbf-87ae713ae2a9--7150568928351298413-11-0.1" type="actor-car-2658870462139227630" depart="120.00" departLane="0" departPos="49.52" departSpeed="max" arrivalLane="2" arrivalPos="29.81">
        <route edges="edge0 edge1"/>
    </vehicle>
    <vehicle id="-flow-random-route-12f65408-1240-45ed-a8f0-dd29bfe69f26--7150568928351298413-5-0.1" type="actor-car-2658870462139227630" depart="120.00" departLane="0" departPos="23.82" departSpeed="max" arrivalLane="0" arrivalPos="427.60">
        <route edges="edge0 edge1"/>
    </vehicle>
    <vehicle id="-flow-random-route-136f2103-35e9-4677-bbe4-7bbb0e4097e9--7150568928351298413-3-0.1" type="actor-car-2658870462139227630" depart="120.00" departLane="1" departPos="24.37" departSpeed="max" arrivalLane="1" arrivalPos="407.68">
        <route edges="edge0 edge1"/>
    </vehicle>
    <vehicle id="-flow-random-route-1ffffa8d-3773-42d5-9a81-9dfdb4a304b2--7150568928351298413-17-0.1" type="actor-car-2658870462139227630" depart="120.00" departLane="2" departPos="80.08" departSpeed="max" arrivalLane="2" arrivalPos="34.91">
        <route edges="edge0 edge1"/>
    </vehicle>
    <vehicle id="-flow-random-route-2144e360-aec7-4030-a7a5-35b59a07c66d--7150568928351298413-8-0.1" type="actor-car-2658870462139227630" depart="120.00" departLane="2" departPos="55.19" departSpeed="max" arrivalLane="1" arrivalPos="154.60">
        <route edges="edge0 edge1"/>
    </vehicle>
    <vehicle id="-flow-random-route-243a5290-23ae-414d-94b3-daaa43874dc1--7150568928351298413-21-0.1" type="actor-car-2658870462139227630" depart="120.00" departLane="2" departPos="452.58" departSpeed="max" arrivalLane="2" arrivalPos="58.73">
        <route edges="edge1 edge0"/>
    </vehicle>
    <vehicle id="-flow-random-route-2e05d154-8f32-420f-b309-c6fbb6d33121--7150568928351298413-19-0.1" type="actor-car-2658870462139227630" depart="120.00" departLane="2" departPos="4.63" departSpeed="max" arrivalLane="2" arrivalPos="481.23">
        <route edges="edge0 edge1"/>
    </vehicle>
    <vehicle id="-flow-random-route-366dab3f-57d3-4747-a3e1-d739d2d06b25--7150568928351298413-22-0.1" type="actor-car-2658870462139227630" depart="120.00" departLane="0" departPos="323.34" departSpeed="max" arrivalLane="1" arrivalPos="84.24">
        <route edges="edge1 edge0"/>
    </vehicle>
    <vehicle id="-flow-random-route-3aa626ce-b09c-4815-b827-1bad1c6543b8--7150568928351298413-25-0.1" type="actor-car-2658870462139227630" depart="120.00" departLane="2" departPos="479.09" departSpeed="max" arrivalLane="0" arrivalPos="63.38">
        <route edges="edge1 edge0"/>
    </vehicle>
    <vehicle id="-flow-random-route-40231f98-f75f-467a-b165-0abfc22ccbde--7150568928351298413-28-0.1" type="actor-car-2658870462139227630" depart="120.00" departLane="0" departPos="73.93" departSpeed="max" arrivalLane="0" arrivalPos="80.50">
        <route edges="edge0 edge1"/>
    </vehicle>
    <vehicle id="-flow-random-route-43d769f4-9a78-4c6a-af18-fc65b5a30169--7150568928351298413-14-0.1" type="actor-car-2658870462139227630" depart="120.00" departLane="0" departPos="62.98" departSpeed="max" arrivalLane="1" arrivalPos="382.56">
        <route edges="edge0 edge1"/>
    </vehicle>
    <vehicle id="-flow-random-route-48eea0d5-fb31-4bb5-9c45-5a6c7940abfb--7150568928351298413-13-0.1" type="actor-car-2658870462139227630" depart="120.00" departLane="1" departPos="34.30" departSpeed="max" arrivalLane="0" arrivalPos="103.16">
        <route edges="edge0 edge1"/>
    </vehicle>
    <vehicle id="-flow-random-route-51b5f35f-ecc2-42c7-a820-70fb96d19b5c--7150568928351298413-24-0.1" type="actor-car-2658870462139227630" depart="120.00" departLane="1" departPos="59.61" departSpeed="max" arrivalLane="2" arrivalPos="62.24">
        <route edges="edge0 edge1"/>
    </vehicle>
    <vehicle id="-flow-random-route-5509afd2-6e3c-40b1-8e4f-33106906802f--7150568928351298413-18-0.1" type="actor-car-2658870462139227630" depart="120.00" departLane="2" departPos="64.58" departSpeed="max" arrivalLane="2" arrivalPos="98.36">
        <route edges="edge0 edge1"/>
    </vehicle>
    <vehicle id="-flow-random-route-5c51fa66-ab29-456f-8ce3-2966f3d66531--7150568928351298413-27-0.1" type="actor-car-2658870462139227630" depart="120.00" departLane="1" departPos="58.62" departSpeed="max" arrivalLane="2" arrivalPos="21.05">
        <route edges="edge1 edge0"/>
    </vehicle>
    <vehicle id="-flow-random-route-60940155-2fab-4db6-8a26-e3b18094c5d4--7150568928351298413-20-0.1" type="actor-car-2658870462139227630" depart="120.00" departLane="0" departPos="22.60" departSpeed="max" arrivalLane="1" arrivalPos="52.26">
        <route edges="edge1 edge0"/>
    </vehicle>
    <vehicle id="-flow-random-route-61b9973d-5586-439d-a628-b2b1562bdc80--7150568928351298413-2-0.1" type="actor-car-2658870462139227630" depart="120.00" departLane="1" departPos="216.02" departSpeed="max" arrivalLane="2" arrivalPos="18.27">
        <route edges="edge1 edge0"/>
    </vehicle>
    <vehicle id="-flow-random-route-7909c924-af93-4d44-a377-14fed0d2495a--7150568928351298413-6-0.1" type="actor-car-2658870462139227630" depart="120.00" departLane="1" departPos="15.27" departSpeed="max" arrivalLane="1" arrivalPos="18.71">
        <route edges="edge0 edge1"/>
    </vehicle>
    <vehicle id="-flow-random-route-95893e65-30c4-4a3d-bf93-03fa58c03de3--7150568928351298413-0-0.1" type="actor-car-2658870462139227630" depart="120.00" departLane="2" departPos="11.31" departSpeed="max" arrivalLane="2" arrivalPos="281.75">
        <route edges="edge0 edge1"/>
    </vehicle>
    <vehicle id="-flow-random-route-a3fa52ab-e893-4028-8962-bbbfb30bfed8--7150568928351298413-16-0.1" type="actor-car-2658870462139227630" depart="120.00" departLane="0" departPos="247.10" departSpeed="max" arrivalLane="0" arrivalPos="47.99">
        <route edges="edge1 edge0"/>
    </vehicle>
    <vehicle id="-flow-random-route-a817737c-c401-412f-ad5a-9421cdf54b2b--7150568928351298413-1-0.1" type="actor-car-2658870462139227630" depart="120.00" departLane="1" departPos="49.98" departSpeed="max" arrivalLane="1" arrivalPos="8.27">
        <route edges="edge1 edge0"/>
    </vehicle>
    <vehicle id="-flow-random-route-be13c9f1-4412-4247-83bf-cb16e967f63f--7150568928351298413-7-0.1" type="actor-car-2658870462139227630" depart="120.00" departLane="2" departPos="102.99" departSpeed="max" arrivalLane="1" arrivalPos="17.41">
        <route edges="edge1 edge0"/>
    </vehicle>
    <vehicle id="-flow-random-route-d2ca0f3d-5ed9-4fa4-b368-7a6854f60c7b--7150568928351298413-12-0.1" type="actor-car-2658870462139227630" depart="120.00" departLane="1" departPos="117.08" departSpeed="max" arrivalLane="0" arrivalPos="75.07">
        <route edges="edge1 edge0"/>
    </vehicle>
    <vehicle id="-flow-random-route-d7f14a68-af18-492d-99bd-03e57e126f20--7150568928351298413-15-0.1" type="actor-car-2658870462139227630" depart="120.00" departLane="2" departPos="270.85" departSpeed="max" arrivalLane="2" arrivalPos="18.83">
        <route edges="edge1 edge0"/>
    </vehicle>
    <vehicle id="-flow-random-route-d7fb7339-2bcf-435e-8914-de4fdc288dd7--7150568928351298413-29-0.1" type="actor-car-2658870462139227630" depart="120.00" departLane="2" departPos="195.29" departSpeed="max" arrivalLane="0" arrivalPos="85.27">
        <route edges="edge1 edge0"/>
    </vehicle>
    <vehicle id="-flow-random-route-dc11e9b2-3f57-42d5-9774-3a84d50d6093--7150568928351298413-23-0.1" type="actor-car-2658870462139227630" depart="120.00" departLane="2" departPos="65.15" departSpeed="max" arrivalLane="2" arrivalPos="446.25">
        <route edges="edge0 edge1"/>
    </vehicle>
    <vehicle id="-flow-random-route-e973beb9-9b9b-4971-af5f-25da32435f0c--7150568928351298413-4-0.1" type="actor-car-2658870462139227630" depart="120.00" departLane="1" departPos="149.23" departSpeed="max" arrivalLane="0" arrivalPos="19.06">
        <route edges="edge1 edge0"/>
    </vehicle>
    <vehicle id="-flow-random-route-ea4fc04c-360b-43f6-9f4d-602bab1adcc8--7150568928351298413-26-0.1" type="actor-car-2658870462139227630" depart="120.00" departLane="2" departPos="85.17" departSpeed="max" arrivalLane="2" arrivalPos="122.93">
        <route edges="edge0 edge1"/>
    </vehicle>
    <vehicle id="-flow-random-route-ed0fba06-b1ed-4058-81c1-65d759f80ed0--7150568928351298413-10-0.1" type="actor-car-2658870462139227630" depart="120.00" departLane="1" departPos="178.30" departSpeed="max" arrivalLane="0" arrivalPos="76.86">
        <route edges="edge1 edge0"/>
    </vehicle>
    <vehicle id="-flow-random-route-04af07b6-4cc6-48a1-a3cf-3874e17405f6--7150568928351298413-9-0.2" type="actor-car-2658870462139227630" depart="240.00" departLane="1" departPos="18.71" departSpeed="max" arrivalLane="2" arrivalPos="253.27">
        <route edges="edge0 edge1"/>
    </vehicle>
    <vehicle id="-flow-random-route-0da1c677-45d0-42d7-afbf-87ae713ae2a9--7150568928351298413-11-0.2" type="actor-car-2658870462139227630" depart="240.00" departLane="0" departPos="49.52" departSpeed="max" arrivalLane="2" arrivalPos="29.81">
        <route edges="edge0 edge1"/>
    </vehicle>
    <vehicle id="-flow-random-route-12f65408-1240-45ed-a8f0-dd29bfe69f26--7150568928351298413-5-0.2" type="actor-car-2658870462139227630" depart="240.00" departLane="0" departPos="23.82" departSpeed="max" arrivalLane="0" arrivalPos="427.60">
        <route edges="edge0 edge1"/>
    </vehicle>
    <vehicle id="-flow-random-route-136f2103-35e9-4677-bbe4-7bbb0e4097e9--7150568928351298413-3-0.2" type="actor-car-2658870462139227630" depart="240.00" departLane="1" departPos="24.37" departSpeed="max" arrivalLane="1" arrivalPos="407.68">
        <route edges="edge0 edge1"/>
    </vehicle>
    <vehicle id="-flow-random-route-1ffffa8d-3773-42d5-9a81-9dfdb4a304b2--7150568928351298413-17-0.2" type="actor-car-2658870462139227630" depart="240.00" departLane="2" departPos="80.08" departSpeed="max" arrivalLane="2" arrivalPos="34.91">
        <route edges="edge0 edge1"/>
    </vehicle>
    <vehicle id="-flow-random-route-2144e360-aec7-4030-a7a5-35b59a07c66d--7150568928351298413-8-0.2" type="actor-car-2658870462139227630" depart="240.00" departLane="2" departPos="55.19" departSpeed="max" arrivalLane="1" arrivalPos="154.60">
        <route edges="edge0 edge1"/>
    </vehicle>
    <vehicle id="-flow-random-route-243a5290-23ae-414d-94b3-daaa43874dc1--7150568928351298413-21-0.2" type="actor-car-2658870462139227630" depart="240.00" departLane="2" departPos="452.58" departSpeed="max" arrivalLane="2" arrivalPos="58.73">
        <route edges="edge1 edge0"/>
    </vehicle>
    <vehicle id="-flow-random-route-2e05d154-8f32-420f-b309-c6fbb6d33121--7150568928351298413-19-0.2" type="actor-car-2658870462139227630" depart="240.00" departLane="2" departPos="4.63" departSpeed="max" arrivalLane="2" arrivalPos="481.23">
        <route edges="edge0 edge1"/>
    </vehicle>
    <vehicle id="-flow-random-route-366dab3f-57d3-4747-a3e1-d739d2d06b25--7150568928351298413-22-0.2" type="actor-car-2658870462139227630" depart="240.00" departLane="0" departPos="323.34" departSpeed="max" arrivalLane="1" arrivalPos="84.24">
        <route edges="edge1 edge0"/>
    </vehicle>
    <vehicle id="-flow-random-route-3aa626ce-b09c-4815-b827-1bad1c6543b8--7150568928351298413-25-0.2" type="actor-car-2658870462139227630" depart="240.00" departLane="2" departPos="479.09" departSpeed="max" arrivalLane="0" arrivalPos="63.38">
        <route edges="edge1 edge0"/>
    </vehicle>
    <vehicle id="-flow-random-route-40231f98-f75f-467a-b165-0abfc22ccbde--7150568928351298413-28-0.2" type="actor-car-2658870462139227630" depart="240.00" departLane="0" departPos="73.93" departSpeed="max" arrivalLane="0" arrivalPos="80.50">
        <route edges="edge0 edge1"/>
    </vehicle>
    <vehicle id="-flow-random-route-43d769f4-9a78-4c6a-af18-fc65b5a30169--7150568928351298413-14-0.2" type="actor-car-2658870462139227630" depart="240.00" departLane="0" departPos="62.98" departSpeed="max" arrivalLane="1" arrivalPos="382.56">
        <route edges="edge0 edge1"/>
    </vehicle>
    <vehicle id="-flow-random-route-48eea0d5-fb31-4bb5-9c45-5a6c7940abfb--7150568928351298413-13-0.2" type="actor-car-2658870462139227630" depart="240.00" departLane="1" departPos="34.30" departSpeed="max" arrivalLane="0" arrivalPos="103.16">
        <route edges="edge0 edge1"/>
    </vehicle>
    <vehicle id="-flow-random-route-51b5f35f-ecc2-42c7-a820-70fb96d19b5c--7150568928351298413-24-0.2" type="actor-car-2658870462139227630" depart="240.00" departLane="1" departPos="59.61" departSpeed="max" arrivalLane="2" arrivalPos="62.24">
        <route edges="edge0 edge1"/>
    </vehicle>
    <vehicle id="-flow-random-route-5509afd2-6e3c-40b1-8e4f-33106906802f--7150568928351298413-18-0.2" type="actor-car-2658870462139227630" depart="240.00" departLane="2" departPos="64.58" departSpeed="max" arrivalLane="2" arrivalPos="98.36">
        <route edges="edge0 edge1"/>
    </vehicle>
    <vehicle id="-flow-random-route-5c51fa66-ab29-456f-8ce3-2966f3d66531--7150568928351298413-27-0.2" type="actor-car-2658870462139227630" depart="240.00" departLane="1" departPos="58.62" departSpeed="max" arrivalLane="2" arrivalPos="21.05">
        <route edges="edge1 edge0"/>
    </vehicle>
    <vehicle id="-flow-random-route-60940155-2fab-4db6-8a26-e3b18094c5d4--7150568928351298413-20-0.2" type="actor-car-2658870462139227630" depart="240.00" departLane="0" departPos="22.60" departSpeed="max" arrivalLane="1" arrivalPos="52.26">
        <route edges="edge1 edge0"/>
    </vehicle>
    <vehicle id="-flow-random-route-61b9973d-5586-439d-a628-b2b1562bdc80--7150568928351298413-2-0.2" type="actor-car-2658870462139227630" depart="240.00" departLane="1" departPos="216.02" departSpeed="max" arrivalLane="2" arrivalPos="18.27">
        <route edges="edge1 edge0"/>
    </vehicle>
    <vehicle id="-flow-random-route-7909c924-af93-4d44-a377-14fed0d2495a--7150568928351298413-6-0.2" type="actor-car-2658870462139227630" depart="240.00" departLane="1" departPos="15.27" departSpeed="max" arrivalLane="1" arrivalPos="18.71">
        <route edges="edge0 edge1"/>
    </vehicle>
    <vehicle id="-flow-random-route-95893e65-30c4-4a3d-bf93-03fa58c03de3--7150568928351298413-0-0.2" type="actor-car-2658870462139227630" depart="240.00" departLane="2" departPos="11.31" departSpeed="max" arrivalLane="2" arrivalPos="281.75">
        <route edges="edge0 edge1"/>
    </vehicle>
    <vehicle id="-flow-random-route-a3fa52ab-e893-4028-8962-bbbfb30bfed8--7150568928351298413-16-0.2" type="actor-car-2658870462139227630" depart="240.00" departLane="0" departPos="247.10" departSpeed="max" arrivalLane="0" arrivalPos="47.99">
        <route edges="edge1 edge0"/>
    </vehicle>
    <vehicle id="-flow-random-route-a817737c-c401-412f-ad5a-9421cdf54b2b--7150568928351298413-1-0.2" type="actor-car-2658870462139227630" depart="240.00" departLane="1" departPos="49.98" departSpeed="max" arrivalLane="1" arrivalPos="8.27">
        <route edges="edge1 edge0"/>
    </vehicle>
    <vehicle id="-flow-random-route-be13c9f1-4412-4247-83bf-cb16e967f63f--7150568928351298413-7-0.2" type="actor-car-2658870462139227630" depart="240.00" departLane="2" departPos="102.99" departSpeed="max" arrivalLane="1" arrivalPos="17.41">
        <route edges="edge1 edge0"/>
    </vehicle>
    <vehicle id="-flow-random-route-d2ca0f3d-5ed9-4fa4-b368-7a6854f60c7b--7150568928351298413-12-0.2" type="actor-car-2658870462139227630" depart="240.00" departLane="1" departPos="117.08" departSpeed="max" arrivalLane="0" arrivalPos="75.07">
        <route edges="edge1 edge0"/>
    </vehicle>
    <vehicle id="-flow-random-route-d7f14a68-af18-492d-99bd-03e57e126f20--7150568928351298413-15-0.2" type="actor-car-2658870462139227630" depart="240.00" departLane="2" departPos="270.85" departSpeed="max" arrivalLane="2" arrivalPos="18.83">
        <route edges="edge1 edge0"/>
    </vehicle>
    <vehicle id="-flow-random-route-d7fb7339-2bcf-435e-8914-de4fdc288dd7--7150568928351298413-29-0.2" type="actor-car-2658870462139227630" depart="240.00" departLane="2" departPos="195.29" departSpeed="max" arrivalLane="0" arrivalPos="85.27">
        <route edges="edge1 edge0"/>
    </vehicle>
    <vehicle id="-flow-random-route-dc11e9b2-3f57-42d5-9774-3a84d50d6093--7150568928351298413-23-0.2" type="actor-car-2658870462139227630" depart="240.00" departLane="2" departPos="65.15" departSpeed="max" arrivalLane="2" arrivalPos="446.25">
        <route edges="edge0 edge1"/>
    </vehicle>
    <vehicle id="-flow-random-route-e973beb9-9b9b-4971-af5f-25da32435f0c--7150568928351298413-4-0.2" type="actor-car-2658870462139227630" depart="240.00" departLane="1" departPos="149.23" departSpeed="max" arrivalLane="0" arrivalPos="19.06">
        <route edges="edge1 edge0"/>
    </vehicle>
    <vehicle id="-flow-random-route-ea4fc04c-360b-43f6-9f4d-602bab1adcc8--7150568928351298413-26-0.2" type="actor-car-2658870462139227630" depart="240.00" departLane="2" departPos="85.17" departSpeed="max" arrivalLane="2" arrivalPos="122.93">
        <route edges="edge0 edge1"/>
    </vehicle>
    <vehicle id="-flow-random-route-ed0fba06-b1ed-4058-81c1-65d759f80ed0--7150568928351298413-10-0.2" type="actor-car-2658870462139227630" depart="240.00" departLane="1" departPos="178.30" departSpeed="max" arrivalLane="0" arrivalPos="76.86">
        <route edges="edge1 edge0"/>
    </vehicle>
    <vehicle id="-flow-random-route-04af07b6-4cc6-48a1-a3cf-3874e17405f6--7150568928351298413-9-0.3" type="actor-car-2658870462139227630" depart="360.00" departLane="1" departPos="18.71" departSpeed="max" arrivalLane="2" arrivalPos="253.27">
        <route edges="edge0 edge1"/>
    </vehicle>
    <vehicle id="-flow-random-route-0da1c677-45d0-42d7-afbf-87ae713ae2a9--7150568928351298413-11-0.3" type="actor-car-2658870462139227630" depart="360.00" departLane="0" departPos="49.52" departSpeed="max" arrivalLane="2" arrivalPos="29.81">
        <route edges="edge0 edge1"/>
    </vehicle>
    <vehicle id="-flow-random-route-12f65408-1240-45ed-a8f0-dd29bfe69f26--7150568928351298413-5-0.3" type="actor-car-2658870462139227630" depart="360.00" departLane="0" departPos="23.82" departSpeed="max" arrivalLane="0" arrivalPos="427.60">
        <route edges="edge0 edge1"/>
    </vehicle>
    <vehicle id="-flow-random-route-136f2103-35e9-4677-bbe4-7bbb0e4097e9--7150568928351298413-3-0.3" type="actor-car-2658870462139227630" depart="360.00" departLane="1" departPos="24.37" departSpeed="max" arrivalLane="1" arrivalPos="407.68">
        <route edges="edge0 edge1"/>
    </vehicle>
    <vehicle id="-flow-random-route-1ffffa8d-3773-42d5-9a81-9dfdb4a304b2--7150568928351298413-17-0.3" type="actor-car-2658870462139227630" depart="360.00" departLane="2" departPos="80.08" departSpeed="max" arrivalLane="2" arrivalPos="34.91">
        <route edges="edge0 edge1"/>
    </vehicle>
    <vehicle id="-flow-random-route-2144e360-aec7-4030-a7a5-35b59a07c66d--7150568928351298413-8-0.3" type="actor-car-2658870462139227630" depart="360.00" departLane="2" departPos="55.19" departSpeed="max" arrivalLane="1" arrivalPos="154.60">
        <route edges="edge0 edge1"/>
    </vehicle>
    <vehicle id="-flow-random-route-243a5290-23ae-414d-94b3-daaa43874dc1--7150568928351298413-21-0.3" type="actor-car-2658870462139227630" depart="360.00" departLane="2" departPos="452.58" departSpeed="max" arrivalLane="2" arrivalPos="58.73">
        <route edges="edge1 edge0"/>
    </vehicle>