<?xml version="1.0" encoding="UTF-8"?>

<!-- generated on Fri Sep 18 07:11:21 2020 by Eclipse SUMO duarouter Version 1.6.0
<configuration xmlns:xsi="http://www.w3.org/2001/XMLSchema-instance" xsi:noNamespaceSchemaLocation="http://sumo.dlr.de/xsd/duarouterConfiguration.xsd">

    <input>
        <net-file value="dataset_public/merge_loop/merge_c/map.net.xml"/>
        <route-files value="/tmp/tmpl7yu75mi/trips.trips.xml"/>
    </input>

    <output>
        <output-file value="dataset_public/merge_loop/merge_c/traffic/30_patient_car.rou.xml"/>
        <alternatives-output value="dataset_public/merge_loop/merge_c/traffic/30_patient_car.rou.alt.xml"/>
    </output>

    <processing>
        <unsorted-input value="true"/>
        <repair value="true"/>
    </processing>

    <report>
        <error-log value="/tmp/smarts/_duarouter_routing/traffic/30_patient_car.log"/>
        <no-step-log value="true"/>
    </report>

    <random_number>
        <seed value="42"/>
    </random_number>

</configuration>
-->

<routes xmlns:xsi="http://www.w3.org/2001/XMLSchema-instance" xsi:noNamespaceSchemaLocation="http://sumo.dlr.de/xsd/routes_file.xsd">
    <vType id="actor-car--6805198556126059233" minGap="2.50" speedFactor="normc(0.50,0.20,0.20,2.00)" vClass="passenger" impatience="0.50" lcCooperative="0.5" lcImpatience="0" jmDriveAfterYellowTime="1.0" accel="2.6" decel="4.5" sigma="0.5"/>
    <vehicle id="-flow-random-route-018cd7ea-4b79-405c-b9fa-00c18f33db69-2115825055558043203-2-0.0" type="actor-car--6805198556126059233" depart="0.00" departLane="0" departPos="127.37" departSpeed="max" arrivalLane="0" arrivalPos="60.15">
        <route edges="gneE16 gneE7.117 gneE10 gneE3 gneE1 gneE16 gneE7.117 gneE7.141 gneE8 gneE9"/>
    </vehicle>
    <vehicle id="-flow-random-route-12008899-579c-4f04-98cb-7b86548b6a9e-2115825055558043203-10-0.0" type="actor-car--6805198556126059233" depart="0.00" departLane="1" departPos="10.60" departSpeed="max" arrivalLane="1" arrivalPos="51.84">
        <route edges="gneE7.141 gneE8 gneE9 gneE2 gneE1 gneE1.12 gneE5 gneE7 gneE7.117 gneE10"/>
    </vehicle>
    <vehicle id="-flow-random-route-13f34346-17f3-4b3d-a15f-8a18a6baa272-2115825055558043203-8-0.0" type="actor-car--6805198556126059233" depart="0.00" departLane="0" departPos="44.91" departSpeed="max" arrivalLane="0" arrivalPos="71.29">
        <route edges="gneE2 gneE1 gneE16"/>
    </vehicle>
    <vehicle id="-flow-random-route-1a7ce8af-d413-4639-9514-e2c7fde7c171-2115825055558043203-7-0.0" type="actor-car--6805198556126059233" depart="0.00" departLane="1" departPos="75.70" departSpeed="max" arrivalLane="1" arrivalPos="20.39">
        <route edges="gneE9 gneE2 gneE1"/>
    </vehicle>
    <vehicle id="-flow-random-route-1deac297-a439-483e-bb4a-ed6418b31d60-2115825055558043203-18-0.0" type="actor-car--6805198556126059233" depart="0.00" departLane="1" departPos="86.24" departSpeed="max" arrivalLane="0" arrivalPos="123.11">
        <route edges="gneE1.12 gneE5 gneE7 gneE7.117 gneE7.141 gneE8 gneE9 gneE2 gneE1 gneE16"/>
    </vehicle>
    <vehicle id="-flow-random-route-266f7696-65f9-4c2d-93b9-6988d65e5195-2115825055558043203-13-0.0" type="actor-car--6805198556126059233" depart="0.00" departLane="0" departPos="110.65" departSpeed="max" arrivalLane="1" arrivalPos="10.24">
        <route edges="gneE8 gneE9 gneE2"/>
    </vehicle>
    <vehicle id="-flow-random-route-2caaee6e-7485-402c-932c-23ea7d923105-2115825055558043203-26-0.0" type="actor-car--6805198556126059233" depart="0.00" departLane="0" departPos="63.76" departSpeed="max" arrivalLane="1" arrivalPos="49.06">
        <route edges="gneE16 gneE7.117 gneE7.141 gneE8 gneE9 gneE2 gneE1 gneE1.12 gneE5 gneE7"/>
    </vehicle>
    <vehicle id="-flow-random-route-3981754f-1f48-4880-a428-bcc9f6c2e1ac-2115825055558043203-21-0.0" type="actor-car--6805198556126059233" depart="0.00" departLane="1" departPos="32.90" departSpeed="max" arrivalLane="1" arrivalPos="94.52">
        <route edges="gneE1.12 gneE5 gneE7 gneE7.117 gneE10"/>
    </vehicle>
    <vehicle id="-flow-random-route-472d35ac-5944-4a2f-8fca-48f8ab4a3f1c-2115825055558043203-24-0.0" type="actor-car--6805198556126059233" depart="0.00" departLane="1" departPos="139.88" departSpeed="max" arrivalLane="0" arrivalPos="27.74">
        <route edges="gneE7.117 gneE10 gneE3"/>
    </vehicle>
    <vehicle id="-flow-random-route-5036d512-5b06-4621-9ae7-a16b0a603995-2115825055558043203-14-0.0" type="actor-car--6805198556126059233" depart="0.00" departLane="0" departPos="46.08" departSpeed="max" arrivalLane="1" arrivalPos="9.68">
        <route edges="gneE10 gneE3 gneE1"/>
    </vehicle>
    <vehicle id="-flow-random-route-520f52c0-0d94-411b-9b26-986335803ccb-2115825055558043203-28-0.0" type="actor-car--6805198556126059233" depart="0.00" departLane="0" departPos="22.38" departSpeed="max" arrivalLane="0" arrivalPos="75.84">
        <route edges="gneE7 gneE7.117 gneE10 gneE3 gneE1 gneE16 gneE7.117 gneE7.141 gneE8 gneE9"/>
    </vehicle>
    <vehicle id="-flow-random-route-5e814eb1-729a-4c4a-9e68-37d9e7300617-2115825055558043203-19-0.0" type="actor-car--6805198556126059233" depart="0.00" departLane="0" departPos="142.73" departSpeed="max" arrivalLane="1" arrivalPos="25.42">
        <route edges="gneE8 gneE9 gneE2"/>
    </vehicle>
    <vehicle id="-flow-random-route-60f14ba5-2dc3-4356-8e11-3461f4ca3fb9-2115825055558043203-9-0.0" type="actor-car--6805198556126059233" depart="0.00" departLane="1" departPos="78.44" departSpeed="max" arrivalLane="0" arrivalPos="6.23">
        <route edges="gneE5 gneE7 gneE7.117 gneE7.141 gneE8 gneE9 gneE2 gneE1 gneE1.12 gneE5"/>
    </vehicle>
    <vehicle id="-flow-random-route-6be04b0f-ad49-48f7-8018-c52f66f523bd-2115825055558043203-12-0.0" type="actor-car--6805198556126059233" depart="0.00" departLane="1" departPos="8.63" departSpeed="max" arrivalLane="0" arrivalPos="29.86">
        <route edges="gneE1 gneE1.12 gneE5 gneE7 gneE7.117 gneE7.141 gneE8 gneE9 gneE2 gneE1"/>
    </vehicle>
    <vehicle id="-flow-random-route-72865799-c751-4b04-a297-f49e117f60b8-2115825055558043203-11-0.0" type="actor-car--6805198556126059233" depart="0.00" departLane="0" departPos="63.04" departSpeed="max" arrivalLane="0" arrivalPos="19.94">
        <route edges="gneE7.141 gneE8 gneE9 gneE2 gneE1 gneE1.12 gneE5 gneE7 gneE7.117 gneE10"/>
    </vehicle>
    <vehicle id="-flow-random-route-7a2e8296-2108-4824-9368-e2723c4e2075-2115825055558043203-27-0.0" type="actor-car--6805198556126059233" depart="0.00" departLane="1" departPos="101.44" departSpeed="max" arrivalLane="0" arrivalPos="32.83">
        <route edges="gneE1.12 gneE5 gneE7 gneE7.117 gneE7.141 gneE8 gneE9 gneE2 gneE1 gneE16"/>
    </vehicle>
    <vehicle id="-flow-random-route-807b1bc8-3127-4576-89d1-2db3469ddb76-2115825055558043203-29-0.0" type="actor-car--6805198556126059233" depart="0.00" departLane="0" departPos="54.68" departSpeed="max" arrivalLane="0" arrivalPos="45.78">
        <route edges="gneE7.141 gneE8 gneE9 gneE2 gneE1 gneE1.12 gneE5 gneE7 gneE7.117 gneE10"/>
    </vehicle>
    <vehicle id="-flow-random-route-90f10fd5-ea24-40ba-890e-fc3a70fcdfb6-2115825055558043203-4-0.0" type="actor-car--6805198556126059233" depart="0.00" departLane="1" departPos="57.92" departSpeed="max" arrivalLane="1" arrivalPos="35.13">
        <route edges="gneE7.117 gneE10 gneE3 gneE1 gneE16 gneE7.117 gneE7.141 gneE8 gneE9 gneE2"/>
    </vehicle>
    <vehicle id="-flow-random-route-9daf5276-851c-4831-b03f-64943fc146e6-2115825055558043203-22-0.0" type="actor-car--6805198556126059233" depart="0.00" departLane="0" departPos="0.98" departSpeed="max" arrivalLane="0" arrivalPos="31.10">
        <route edges="gneE5 gneE7 gneE7.117 gneE7.141 gneE8 gneE9 gneE2 gneE1 gneE1.12 gneE5"/>
    </vehicle>
    <vehicle id="-flow-random-route-a2ec7905-ac3d-488f-9f33-5392b98f167a-2115825055558043203-25-0.0" type="actor-car--6805198556126059233" depart="0.00" departLane="0" departPos="25.80" departSpeed="max" arrivalLane="0" arrivalPos="131.61">
        <route edges="gneE5 gneE7 gneE7.117 gneE7.141 gneE8 gneE9 gneE2 gneE1 gneE1.12 gneE5"/>
    </vehicle>
    <vehicle id="-flow-random-route-b00d30aa-b638-4a20-89b7-56b4913c7d54-2115825055558043203-1-0.0" type="actor-car--6805198556126059233" depart="0.00" departLane="1" departPos="51.03" departSpeed="max" arrivalLane="1" arrivalPos="9.22">
        <route edges="gneE9 gneE2 gneE1"/>
    </vehicle>
    <vehicle id="-flow-random-route-bbbf9957-7450-4aed-834c-68fa2fce542c-2115825055558043203-5-0.0" type="actor-car--6805198556126059233" depart="0.00" departLane="0" departPos="3.52" departSpeed="max" arrivalLane="0" arrivalPos="170.89">
        <route edges="gneE7.117 gneE7.141 gneE8"/>
    </vehicle>
    <vehicle id="-flow-random-route-bf2139c6-dfd8-4861-a0e6-bb954a95dc83-2115825055558043203-15-0.0" type="actor-car--6805198556126059233" depart="0.00" departLane="0" departPos="101.00" departSpeed="max" arrivalLane="1" arrivalPos="35.45">
        <route edges="gneE16 gneE7.117 gneE10 gneE3 gneE1"/>
    </vehicle>
    <vehicle id="-flow-random-route-c486f59d-e6fc-48f1-9550-b51112f5fef9-2115825055558043203-3-0.0" type="actor-car--6805198556126059233" depart="0.00" departLane="0" departPos="152.32" departSpeed="max" arrivalLane="1" arrivalPos="31.01">
        <route edges="gneE8 gneE9 gneE2 gneE1 gneE1.12 gneE5 gneE7 gneE7.117 gneE7.141 gneE8"/>
    </vehicle>
    <vehicle id="-flow-random-route-ce0f8806-2341-4857-9d1c-8488067f2e95-2115825055558043203-6-0.0" type="actor-car--6805198556126059233" depart="0.00" departLane="0" departPos="52.27" departSpeed="max" arrivalLane="1" arrivalPos="28.92">
        <route edges="gneE5 gneE7 gneE7.117 gneE10 gneE3"/>
    </vehicle>
    <vehicle id="-flow-random-route-ce14fa21-9db4-40f8-a534-144008ac26e4-2115825055558043203-20-0.0" type="actor-car--6805198556126059233" depart="0.00" departLane="0" departPos="10.39" departSpeed="max" arrivalLane="0" arrivalPos="19.22">
        <route edges="gneE3 gneE1 gneE1.12 gneE5 gneE7 gneE7.117 gneE10 gneE3 gneE1 gneE16"/>
    </vehicle>
    <vehicle id="-flow-random-route-dc7362cb-d03f-419a-91fb-f628e20e07dd-2115825055558043203-16-0.0" type="actor-car--6805198556126059233" depart="0.00" departLane="0" departPos="28.73" departSpeed="max" arrivalLane="1" arrivalPos="79.57">
        <route edges="gneE16 gneE7.117 gneE10"/>
    </vehicle>
    <vehicle id="-flow-random-route-e0cab37a-55b9-46a4-8162-a435f38c09e0-2115825055558043203-23-0.0" type="actor-car--6805198556126059233" depart="0.00" departLane="1" departPos="41.46" departSpeed="max" arrivalLane="0" arrivalPos="12.18">
        <route edges="gneE5 gneE7 gneE7.117 gneE10 gneE3"/>
    </vehicle>
    <vehicle id="-flow-random-route-e58334cb-50f5-4b69-8875-792a421917e1-2115825055558043203-0-0.0" type="actor-car--6805198556126059233" depart="0.00" departLane="0" departPos="32.02" departSpeed="max" arrivalLane="0" arrivalPos="63.63">
        <route edges="gneE2 gneE1 gneE16 gneE7.117 gneE10"/>
    </vehicle>
    <vehicle id="-flow-random-route-f1f4f57d-25d8-4120-a6d1-2c0f1336aff9-2115825055558043203-17-0.0" type="actor-car--6805198556126059233" depart="0.00" departLane="0" departPos="80.76" departSpeed="max" arrivalLane="1" arrivalPos="8.62">
        <route edges="gneE9 gneE2 gneE1 gneE1.12 gneE5 gneE7 gneE7.117 gneE7.141 gneE8 gneE9"/>
    </vehicle>
    <vehicle id="-flow-random-route-018cd7ea-4b79-405c-b9fa-00c18f33db69-2115825055558043203-2-0.1" type="actor-car--6805198556126059233" depart="120.00" departLane="0" departPos="127.37" departSpeed="max" arrivalLane="0" arrivalPos="60.15">
        <route edges="gneE16 gneE7.117 gneE10 gneE3 gneE1 gneE16 gneE7.117 gneE7.141 gneE8 gneE9"/>
    </vehicle>
    <vehicle id="-flow-random-route-12008899-579c-4f04-98cb-7b86548b6a9e-2115825055558043203-10-0.1" type="actor-car--6805198556126059233" depart="120.00" departLane="1" departPos="10.60" departSpeed="max" arrivalLane="1" arrivalPos="51.84">
        <route edges="gneE7.141 gneE8 gneE9 gneE2 gneE1 gneE1.12 gneE5 gneE7 gneE7.117 gneE10"/>
    </vehicle>
    <vehicle id="-flow-random-route-13f34346-17f3-4b3d-a15f-8a18a6baa272-2115825055558043203-8-0.1" type="actor-car--6805198556126059233" depart="120.00" departLane="0" departPos="44.91" departSpeed="max" arrivalLane="0" arrivalPos="71.29">
        <route edges="gneE2 gneE1 gneE16"/>
    </vehicle>
    <vehicle id="-flow-random-route-1a7ce8af-d413-4639-9514-e2c7fde7c171-2115825055558043203-7-0.1" type="actor-car--6805198556126059233" depart="120.00" departLane="1" departPos="75.70" departSpeed="max" arrivalLane="1" arrivalPos="20.39">
        <route edges="gneE9 gneE2 gneE1"/>
    </vehicle>
    <vehicle id="-flow-random-route-1deac297-a439-483e-bb4a-ed6418b31d60-2115825055558043203-18-0.1" type="actor-car--6805198556126059233" depart="120.00" departLane="1" departPos="86.24" departSpeed="max" arrivalLane="0" arrivalPos="123.11">
        <route edges="gneE1.12 gneE5 gneE7 gneE7.117 gneE7.141 gneE8 gneE9 gneE2 gneE1 gneE16"/>
    </vehicle>
    <vehicle id="-flow-random-route-266f7696-65f9-4c2d-93b9-6988d65e5195-2115825055558043203-13-0.1" type="actor-car--6805198556126059233" depart="120.00" departLane="0" departPos="110.65" departSpeed="max" arrivalLane="1" arrivalPos="10.24">
        <route edges="gneE8 gneE9 gneE2"/>
    </vehicle>
    <vehicle id="-flow-random-route-2caaee6e-7485-402c-932c-23ea7d923105-2115825055558043203-26-0.1" type="actor-car--6805198556126059233" depart="120.00" departLane="0" departPos="63.76" departSpeed="max" arrivalLane="1" arrivalPos="49.06">
        <route edges="gneE16 gneE7.117 gneE7.141 gneE8 gneE9 gneE2 gneE1 gneE1.12 gneE5 gneE7"/>
    </vehicle>
    <vehicle id="-flow-random-route-3981754f-1f48-4880-a428-bcc9f6c2e1ac-2115825055558043203-21-0.1" type="actor-car--6805198556126059233" depart="120.00" departLane="1" departPos="32.90" departSpeed="max" arrivalLane="1" arrivalPos="94.52">
        <route edges="gneE1.12 gneE5 gneE7 gneE7.117 gneE10"/>
    </vehicle>
    <vehicle id="-flow-random-route-472d35ac-5944-4a2f-8fca-48f8ab4a3f1c-2115825055558043203-24-0.1" type="actor-car--6805198556126059233" depart="120.00" departLane="1" departPos="139.88" departSpeed="max" arrivalLane="0" arrivalPos="27.74">
        <route edges="gneE7.117 gneE10 gneE3"/>
    </vehicle>
    <vehicle id="-flow-random-route-5036d512-5b06-4621-9ae7-a16b0a603995-2115825055558043203-14-0.1" type="actor-car--6805198556126059233" depart="120.00" departLane="0" departPos="46.08" departSpeed="max" arrivalLane="1" arrivalPos="9.68">
        <route edges="gneE10 gneE3 gneE1"/>
    </vehicle>
    <vehicle id="-flow-random-route-520f52c0-0d94-411b-9b26-986335803ccb-2115825055558043203-28-0.1" type="actor-car--6805198556126059233" depart="120.00" departLane="0" departPos="22.38" departSpeed="max" arrivalLane="0" arrivalPos="75.84">
        <route edges="gneE7 gneE7.117 gneE10 gneE3 gneE1 gneE16 gneE7.117 gneE7.141 gneE8 gneE9"/>
    </vehicle>
    <vehicle id="-flow-random-route-5e814eb1-729a-4c4a-9e68-37d9e7300617-2115825055558043203-19-0.1" type="actor-car--6805198556126059233" depart="120.00" departLane="0" departPos="142.73" departSpeed="max" arrivalLane="1" arrivalPos="25.42">
        <route edges="gneE8 gneE9 gneE2"/>
    </vehicle>
    <vehicle id="-flow-random-route-60f14ba5-2dc3-4356-8e11-3461f4ca3fb9-2115825055558043203-9-0.1" type="actor-car--6805198556126059233" depart="120.00" departLane="1" departPos="78.44" departSpeed="max" arrivalLane="0" arrivalPos="6.23">
        <route edges="gneE5 gneE7 gneE7.117 gneE7.141 gneE8 gneE9 gneE2 gneE1 gneE1.12 gneE5"/>
    </vehicle>
    <vehicle id="-flow-random-route-6be04b0f-ad49-48f7-8018-c52f66f523bd-2115825055558043203-12-0.1" type="actor-car--6805198556126059233" depart="120.00" departLane="1" departPos="8.63" departSpeed="max" arrivalLane="0" arrivalPos="29.86">
        <route edges="gneE1 gneE1.12 gneE5 gneE7 gneE7.117 gneE7.141 gneE8 gneE9 gneE2 gneE1"/>
    </vehicle>
    <vehicle id="-flow-random-route-72865799-c751-4b04-a297-f49e117f60b8-2115825055558043203-11-0.1" type="actor-car--6805198556126059233" depart="120.00" departLane="0" departPos="63.04" departSpeed="max" arrivalLane="0" arrivalPos="19.94">
        <route edges="gneE7.141 gneE8 gneE9 gneE2 gneE1 gneE1.12 gneE5 gneE7 gneE7.117 gneE10"/>
    </vehicle>
    <vehicle id="-flow-random-route-7a2e8296-2108-4824-9368-e2723c4e2075-2115825055558043203-27-0.1" type="actor-car--6805198556126059233" depart="120.00" departLane="1" departPos="101.44" departSpeed="max" arrivalLane="0" arrivalPos="32.83">
        <route edges="gneE1.12 gneE5 gneE7 gneE7.117 gneE7.141 gneE8 gneE9 gneE2 gneE1 gneE16"/>
    </vehicle>
    <vehicle id="-flow-random-route-807b1bc8-3127-4576-89d1-2db3469ddb76-2115825055558043203-29-0.1" type="actor-car--6805198556126059233" depart="120.00" departLane="0" departPos="54.68" departSpeed="max" arrivalLane="0" arrivalPos="45.78">
        <route edges="gneE7.141 gneE8 gneE9 gneE2 gneE1 gneE1.12 gneE5 gneE7 gneE7.117 gneE10"/>
    </vehicle>
    <vehicle id="-flow-random-route-90f10fd5-ea24-40ba-890e-fc3a70fcdfb6-2115825055558043203-4-0.1" type="actor-car--6805198556126059233" depart="120.00" departLane="1" departPos="57.92" departSpeed="max" arrivalLane="1" arrivalPos="35.13">
        <route edges="gneE7.117 gneE10 gneE3 gneE1 gneE16 gneE7.117 gneE7.141 gneE8 gneE9 gneE2"/>
    </vehicle>
    <vehicle id="-flow-random-route-9daf5276-851c-4831-b03f-64943fc146e6-2115825055558043203-22-0.1" type="actor-car--6805198556126059233" depart="120.00" departLane="0" departPos="0.98" departSpeed="max" arrivalLane="0" arrivalPos="31.10">
        <route edges="gneE5 gneE7 gneE7.117 gneE7.141 gneE8 gneE9 gneE2 gneE1 gneE1.12 gneE5"/>
    </vehicle>
    <vehicle id="-flow-random-route-a2ec7905-ac3d-488f-9f33-5392b98f167a-2115825055558043203-25-0.1" type="actor-car--6805198556126059233" depart="120.00" departLane="0" departPos="25.80" departSpeed="max" arrivalLane="0" arrivalPos="131.61">
        <route edges="gneE5 gneE7 gneE7.117 gneE7.141 gneE8 gneE9 gneE2 gneE1 gneE1.12 gneE5"/>
    </vehicle>
    <vehicle id="-flow-random-route-b00d30aa-b638-4a20-89b7-56b4913c7d54-2115825055558043203-1-0.1" type="actor-car--6805198556126059233" depart="120.00" departLane="1" departPos="51.03" departSpeed="max" arrivalLane="1" arrivalPos="9.22">
        <route edges="gneE9 gneE2 gneE1"/>
    </vehicle>
    <vehicle id="-flow-random-route-bbbf9957-7450-4aed-834c-68fa2fce542c-2115825055558043203-5-0.1" type="actor-car--6805198556126059233" depart="120.00" departLane="0" departPos="3.52" departSpeed="max" arrivalLane="0" arrivalPos="170.89">
        <route edges="gneE7.117 gneE7.141 gneE8"/>
    </vehicle>
    <vehicle id="-flow-random-route-bf2139c6-dfd8-4861-a0e6-bb954a95dc83-2115825055558043203-15-0.1" type="actor-car--6805198556126059233" depart="120.00" departLane="0" departPos="101.00" departSpeed="max" arrivalLane="1" arrivalPos="35.45">
        <route edges="gneE16 gneE7.117 gneE10 gneE3 gneE1"/>
    </vehicle>
    <vehicle id="-flow-random-route-c486f59d-e6fc-48f1-9550-b51112f5fef9-2115825055558043203-3-0.1" type="actor-car--6805198556126059233" depart="120.00" departLane="0" departPos="152.32" departSpeed="max" arrivalLane="1" arrivalPos="31.01">
        <route edges="gneE8 gneE9 gneE2 gneE1 gneE1.12 gneE5 gneE7 gneE7.117 gneE7.141 gneE8"/>
    </vehicle>
    <vehicle id="-flow-random-route-ce0f8806-2341-4857-9d1c-8488067f2e95-2115825055558043203-6-0.1" type="actor-car--6805198556126059233" depart="120.00" departLane="0" departPos="52.27" departSpeed="max" arrivalLane="1" arrivalPos="28.92">
        <route edges="gneE5 gneE7 gneE7.117 gneE10 gneE3"/>
    </vehicle>
    <vehicle id="-flow-random-route-ce14fa21-9db4-40f8-a534-144008ac26e4-2115825055558043203-20-0.1" type="actor-car--6805198556126059233" depart="120.00" departLane="0" departPos="10.39" departSpeed="max" arrivalLane="0" arrivalPos="19.22">
        <route edges="gneE3 gneE1 gneE1.12 gneE5 gneE7 gneE7.117 gneE10 gneE3 gneE1 gneE16"/>
    </vehicle>
    <vehicle id="-flow-random-route-dc7362cb-d03f-419a-91fb-f628e20e07dd-2115825055558043203-16-0.1" type="actor-car--6805198556126059233" depart="120.00" departLane="0" departPos="28.73" departSpeed="max" arrivalLane="1" arrivalPos="79.57">
        <route edges="gneE16 gneE7.117 gneE10"/>
    </vehicle>
    <vehicle id="-flow-random-route-e0cab37a-55b9-46a4-8162-a435f38c09e0-2115825055558043203-23-0.1" type="actor-car--6805198556126059233" depart="120.00" departLane="1" departPos="41.46" departSpeed="max" arrivalLane="0" arrivalPos="12.18">
        <route edges="gneE5 gneE7 gneE7.117 gneE10 gneE3"/>
    </vehicle>
    <vehicle id="-flow-random-route-e58334cb-50f5-4b69-8875-792a421917e1-2115825055558043203-0-0.1" type="actor-car--6805198556126059233" depart="120.00" departLane="0" departPos="32.02" departSpeed="max" arrivalLane="0" arrivalPos="63.63">
        <route edges="gneE2 gneE1 gneE16 gneE7.117 gneE10"/>
    </vehicle>
    <vehicle id="-flow-random-route-f1f4f57d-25d8-4120-a6d1-2c0f1336aff9-2115825055558043203-17-0.1" type="actor-car--6805198556126059233" depart="120.00" departLane="0" departPos="80.76" departSpeed="max" arrivalLane="1" arrivalPos="8.62">
        <route edges="gneE9 gneE2 gneE1 gneE1.12 gneE5 gneE7 gneE7.117 gneE7.141 gneE8 gneE9"/>
    </vehicle>
    <vehicle id="-flow-random-route-018cd7ea-4b79-405c-b9fa-00c18f33db69-2115825055558043203-2-0.2" type="actor-car--6805198556126059233" depart="240.00" departLane="0" departPos="127.37" departSpeed="max" arrivalLane="0" arrivalPos="60.15">
        <route edges="gneE16 gneE7.117 gneE10 gneE3 gneE1 gneE16 gneE7.117 gneE7.141 gneE8 gneE9"/>
    </vehicle>
    <vehicle id="-flow-random-route-12008899-579c-4f04-98cb-7b86548b6a9e-2115825055558043203-10-0.2" type="actor-car--6805198556126059233" depart="240.00" departLane="1" departPos="10.60" departSpeed="max" arrivalLane="1" arrivalPos="51.84">
        <route edges="gneE7.141 gneE8 gneE9 gneE2 gneE1 gneE1.12 gneE5 gneE7 gneE7.117 gneE10"/>
    </vehicle>
    <vehicle id="-flow-random-route-13f34346-17f3-4b3d-a15f-8a18a6baa272-2115825055558043203-8-0.2" type="actor-car--6805198556126059233" depart="240.00" departLane="0" departPos="44.91" departSpeed="max" arrivalLane="0" arrivalPos="71.29">
        <route edges="gneE2 gneE1 gneE16"/>
    </vehicle>
    <vehicle id="-flow-random-route-1a7ce8af-d413-4639-9514-e2c7fde7c171-2115825055558043203-7-0.2" type="actor-car--6805198556126059233" depart="240.00" departLane="1" departPos="75.70" departSpeed="max" arrivalLane="1" arrivalPos="20.39">
        <route edges="gneE9 gneE2 gneE1"/>
    </vehicle>
    <vehicle id="-flow-random-route-1deac297-a439-483e-bb4a-ed6418b31d60-2115825055558043203-18-0.2" type="actor-car--6805198556126059233" depart="240.00" departLane="1" departPos="86.24" departSpeed="max" arrivalLane="0" arrivalPos="123.11">
        <route edges="gneE1.12 gneE5 gneE7 gneE7.117 gneE7.141 gneE8 gneE9 gneE2 gneE1 gneE16"/>
    </vehicle>
    <vehicle id="-flow-random-route-266f7696-65f9-4c2d-93b9-6988d65e5195-2115825055558043203-13-0.2" type="actor-car--6805198556126059233" depart="240.00" departLane="0" departPos="110.65" departSpeed="max" arrivalLane="1" arrivalPos="10.24">
        <route edges="gneE8 gneE9 gneE2"/>
    </vehicle>
    <vehicle id="-flow-random-route-2caaee6e-7485-402c-932c-23ea7d923105-2115825055558043203-26-0.2" type="actor-car--6805198556126059233" depart="240.00" departLane="0" departPos="63.76" departSpeed="max" arrivalLane="1" arrivalPos="49.06">
        <route edges="gneE16 gneE7.117 gneE7.141 gneE8 gneE9 gneE2 gneE1 gneE1.12 gneE5 gneE7"/>
    </vehicle>
    <vehicle id="-flow-random-route-3981754f-1f48-4880-a428-bcc9f6c2e1ac-2115825055558043203-21-0.2" type="actor-car--6805198556126059233" depart="240.00" departLane="1" departPos="32.90" departSpeed="max" arrivalLane="1" arrivalPos="94.52">
        <route edges="gneE1.12 gneE5 gneE7 gneE7.117 gneE10"/>
    </vehicle>
    <vehicle id="-flow-random-route-472d35ac-5944-4a2f-8fca-48f8ab4a3f1c-2115825055558043203-24-0.2" type="actor-car--6805198556126059233" depart="240.00" departLane="1" departPos="139.88" departSpeed="max" arrivalLane="0" arrivalPos="27.74">
        <route edges="gneE7.117 gneE10 gneE3"/>
    </vehicle>
    <vehicle id="-flow-random-route-5036d512-5b06-4621-9ae7-a16b0a603995-2115825055558043203-14-0.2" type="actor-car--6805198556126059233" depart="240.00" departLane="0" departPos="46.08" departSpeed="max" arrivalLane="1" arrivalPos="9.68">
        <route edges="gneE10 gneE3 gneE1"/>
    </vehicle>
    <vehicle id="-flow-random-route-520f52c0-0d94-411b-9b26-986335803ccb-2115825055558043203-28-0.2" type="actor-car--6805198556126059233" depart="240.00" departLane="0" departPos="22.38" departSpeed="max" arrivalLane="0" arrivalPos="75.84">
        <route edges="gneE7 gneE7.117 gneE10 gneE3 gneE1 gneE16 gneE7.117 gneE7.141 gneE8 gneE9"/>
    </vehicle>
    <vehicle id="-flow-random-route-5e814eb1-729a-4c4a-9e68-37d9e7300617-2115825055558043203-19-0.2" type="actor-car--6805198556126059233" depart="240.00" departLane="0" departPos="142.73" departSpeed="max" arrivalLane="1" arrivalPos="25.42">
        <route edges="gneE8 gneE9 gneE2"/>
    </vehicle>
    <vehicle id="-flow-random-route-60f14ba5-2dc3-4356-8e11-3461f4ca3fb9-2115825055558043203-9-0.2" type="actor-car--6805198556126059233" depart="240.00" departLane="1" departPos="78.44" departSpeed="max" arrivalLane="0" arrivalPos="6.23">
        <route edges="gneE5 gneE7 gneE7.117 gneE7.141 gneE8 gneE9 gneE2 gneE1 gneE1.12 gneE5"/>
    </vehicle>
    <vehicle id="-flow-random-route-6be04b0f-ad49-48f7-8018-c52f66f523bd-2115825055558043203-12-0.2" type="actor-car--6805198556126059233" depart="240.00" departLane="1" departPos="8.63" departSpeed="max" arrivalLane="0" arrivalPos="29.86">
        <route edges="gneE1 gneE1.12 gneE5 gneE7 gneE7.117 gneE7.141 gneE8 gneE9 gneE2 gneE1"/>
    </vehicle>
    <vehicle id="-flow-random-route-72865799-c751-4b04-a297-f49e117f60b8-2115825055558043203-11-0.2" type="actor-car--6805198556126059233" depart="240.00" departLane="0" departPos="63.04" departSpeed="max" arrivalLane="0" arrivalPos="19.94">
        <route edges="gneE7.141 gneE8 gneE9 gneE2 gneE1 gneE1.12 gneE5 gneE7 gneE7.117 gneE10"/>
    </vehicle>
    <vehicle id="-flow-random-route-7a2e8296-2108-4824-9368-e2723c4e2075-2115825055558043203-27-0.2" type="actor-car--6805198556126059233" depart="240.00" departLane="1" departPos="101.44" departSpeed="max" arrivalLane="0" arrivalPos="32.83">
        <route edges="gneE1.12 gneE5 gneE7 gneE7.117 gneE7.141 gneE8 gneE9 gneE2 gneE1 gneE16"/>
    </vehicle>
    <vehicle id="-flow-random-route-807b1bc8-3127-4576-89d1-2db3469ddb76-2115825055558043203-29-0.2" type="actor-car--6805198556126059233" depart="240.00" departLane="0" departPos="54.68" departSpeed="max" arrivalLane="0" arrivalPos="45.78">
        <route edges="gneE7.141 gneE8 gneE9 gneE2 gneE1 gneE1.12 gneE5 gneE7 gneE7.117 gneE10"/>
    </vehicle>
    <vehicle id="-flow-random-route-90f10fd5-ea24-40ba-890e-fc3a70fcdfb6-2115825055558043203-4-0.2" type="actor-car--6805198556126059233" depart="240.00" departLane="1" departPos="57.92" departSpeed="max" arrivalLane="1" arrivalPos="35.13">
        <route edges="gneE7.117 gneE10 gneE3 gneE1 gneE16 gneE7.117 gneE7.141 gneE8 gneE9 gneE2"/>
    </vehicle>
    <vehicle id="-flow-random-route-9daf5276-851c-4831-b03f-64943fc146e6-2115825055558043203-22-0.2" type="actor-car--6805198556126059233" depart="240.00" departLane="0" departPos="0.98" departSpeed="max" arrivalLane="0" arrivalPos="31.10">
        <route edges="gneE5 gneE7 gneE7.117 gneE7.141 gneE8 gneE9 gneE2 gneE1 gneE1.12 gneE5"/>
    </vehicle>
    <vehicle id="-flow-random-route-a2ec7905-ac3d-488f-9f33-5392b98f167a-2115825055558043203-25-0.2" type="actor-car--6805198556126059233" depart="240.00" departLane="0" departPos="25.80" departSpeed="max" arrivalLane="0" arrivalPos="131.61">
        <route edges="gneE5 gneE7 gneE7.117 gneE7.141 gneE8 gneE9 gneE2 gneE1 gneE1.12 gneE5"/>
    </vehicle>
    <vehicle id="-flow-random-route-b00d30aa-b638-4a20-89b7-56b4913c7d54-2115825055558043203-1-0.2" type="actor-car--6805198556126059233" depart="240.00" departLane="1" departPos="51.03" departSpeed="max" arrivalLane="1" arrivalPos="9.22">
        <route edges="gneE9 gneE2 gneE1"/>
    </vehicle>
    <vehicle id="-flow-random-route-bbbf9957-7450-4aed-834c-68fa2fce542c-2115825055558043203-5-0.2" type="actor-car--6805198556126059233" depart="240.00" departLane="0" departPos="3.52" departSpeed="max" arrivalLane="0" arrivalPos="170.89">
        <route edges="gneE7.117 gneE7.141 gneE8"/>
    </vehicle>
    <vehicle id="-flow-random-route-bf2139c6-dfd8-4861-a0e6-bb954a95dc83-2115825055558043203-15-0.2" type="actor-car--6805198556126059233" depart="240.00" departLane="0" departPos="101.00" departSpeed="max" arrivalLane="1" arrivalPos="35.45">
        <route edges="gneE16 gneE7.117 gneE10 gneE3 gneE1"/>
    </vehicle>
    <vehicle id="-flow-random-route-c486f59d-e6fc-48f1-9550-b51112f5fef9-2115825055558043203-3-0.2" type="actor-car--6805198556126059233" depart="240.00" departLane="0" departPos="152.32" departSpeed="max" arrivalLane="1" arrivalPos="31.01">
        <route edges="gneE8 gneE9 gneE2 gneE1 gneE1.12 gneE5 gneE7 gneE7.117 gneE7.141 gneE8"/>
    </vehicle>
    <vehicle id="-flow-random-route-ce0f8806-2341-4857-9d1c-8488067f2e95-2115825055558043203-6-0.2" type="actor-car--6805198556126059233" depart="240.00" departLane="0" departPos="52.27" departSpeed="max" arrivalLane="1" arrivalPos="28.92">
        <route edges="gneE5 gneE7 gneE7.117 gneE10 gneE3"/>
    </vehicle>
    <vehicle id="-flow-random-route-ce14fa21-9db4-40f8-a534-144008ac26e4-2115825055558043203-20-0.2" type="actor-car--6805198556126059233" depart="240.00" departLane="0" departPos="10.39" departSpeed="max" arrivalLane="0" arrivalPos="19.22">
        <route edges="gneE3 gneE1 gneE1.12 gneE5 gneE7 gneE7.117 gneE10 gneE3 gneE1 gneE16"/>
    </vehicle>