<?xml version="1.0" encoding="UTF-8"?>

<!-- generated on Fri Sep 18 07:56:36 2020 by Eclipse SUMO duarouter Version 1.6.0
<configuration xmlns:xsi="http://www.w3.org/2001/XMLSchema-instance" xsi:noNamespaceSchemaLocation="http://sumo.dlr.de/xsd/duarouterConfiguration.xsd">

    <input>
        <net-file value="dataset_public/sharp_loop/sharploop_b/map.net.xml"/>
        <route-files value="/tmp/tmpl0rvnix8/trips.trips.xml"/>
    </input>

    <output>
        <output-file value="dataset_public/sharp_loop/sharploop_b/traffic/30_patient_car.rou.xml"/>
        <alternatives-output value="dataset_public/sharp_loop/sharploop_b/traffic/30_patient_car.rou.alt.xml"/>
    </output>

    <processing>
        <unsorted-input value="true"/>
        <repair value="true"/>
    </processing>

    <report>
        <error-log value="/tmp/smarts/_duarouter_routing/traffic/30_patient_car.log"/>
        <no-step-log value="true"/>
    </report>

    <random_number>
        <seed value="42"/>
    </random_number>

</configuration>
-->

<routes xmlns:xsi="http://www.w3.org/2001/XMLSchema-instance" xsi:noNamespaceSchemaLocation="http://sumo.dlr.de/xsd/routes_file.xsd">
    <vType id="actor-car-7453235526878232681" minGap="2.50" speedFactor="normc(0.50,0.20,0.20,2.00)" vClass="passenger" impatience="0.50" lcCooperative="0.5" lcImpatience="0" jmDriveAfterYellowTime="1.0" accel="2.6" decel="4.5" sigma="0.5"/>
    <vehicle id="-flow-random-route-0857c317-b4e6-465e-8186-d49680863f7b-6669253276321465921-1-0.0" type="actor-car-7453235526878232681" depart="0.00" departLane="2" departPos="151.73" departSpeed="max" arrivalLane="2" arrivalPos="175.37">
        <route edges="edge0 edge1"/>
    </vehicle>
    <vehicle id="-flow-random-route-0f57c086-25bd-43fa-b6c8-80bb85304d22-6669253276321465921-14-0.0" type="actor-car-7453235526878232681" depart="0.00" departLane="0" departPos="42.43" departSpeed="max" arrivalLane="0" arrivalPos="609.99">
        <route edges="edge0 edge1"/>
    </vehicle>
    <vehicle id="-flow-random-route-2279c193-0367-425d-8513-d9a332c83f29-6669253276321465921-4-0.0" type="actor-car-7453235526878232681" depart="0.00" departLane="2" departPos="386.38" departSpeed="max" arrivalLane="2" arrivalPos="33.54">
        <route edges="edge1 edge0"/>
    </vehicle>
    <vehicle id="-flow-random-route-259fbddd-37a3-4368-baea-cfbc1ef82605-6669253276321465921-3-0.0" type="actor-car-7453235526878232681" depart="0.00" departLane="1" departPos="71.30" departSpeed="max" arrivalLane="1" arrivalPos="14.73">
        <route edges="edge1 edge0"/>
    </vehicle>
    <vehicle id="-flow-random-route-33653a44-cc5f-4948-afef-f4a8bb9a512c-6669253276321465921-13-0.0" type="actor-car-7453235526878232681" depart="0.00" departLane="0" departPos="112.19" departSpeed="max" arrivalLane="1" arrivalPos="545.75">
        <route edges="edge0 edge1"/>
    </vehicle>
    <vehicle id="-flow-random-route-45211aa8-a773-437a-bf7e-db0dea2b5db0-6669253276321465921-7-0.0" type="actor-car-7453235526878232681" depart="0.00" departLane="2" departPos="142.67" departSpeed="max" arrivalLane="2" arrivalPos="49.81">
        <route edges="edge0 edge1"/>
    </vehicle>
    <vehicle id="-flow-random-route-4b1a951a-5ced-45e0-a1a8-d8492a51f4ed-6669253276321465921-24-0.0" type="actor-car-7453235526878232681" depart="0.00" departLane="1" departPos="167.03" departSpeed="max" arrivalLane="0" arrivalPos="133.74">
        <route edges="edge1 edge0"/>
    </vehicle>
    <vehicle id="-flow-random-route-4d2da728-44fc-4457-9f19-a2d96a3086ae-6669253276321465921-12-0.0" type="actor-car-7453235526878232681" depart="0.00" departLane="2" departPos="20.15" departSpeed="max" arrivalLane="2" arrivalPos="401.93">
        <route edges="edge0 edge1"/>
    </vehicle>
    <vehicle id="-flow-random-route-4e1290b5-aea4-42dd-8dfa-a2f4bf34e251-6669253276321465921-0-0.0" type="actor-car-7453235526878232681" depart="0.00" departLane="2" departPos="146.92" departSpeed="max" arrivalLane="1" arrivalPos="31.01">
        <route edges="edge1 edge0"/>
    </vehicle>
    <vehicle id="-flow-random-route-5aae3fab-7d15-49be-9b4d-9ed0ddf9591e-6669253276321465921-28-0.0" type="actor-car-7453235526878232681" depart="0.00" departLane="1" departPos="83.63" departSpeed="max" arrivalLane="2" arrivalPos="37.50">
        <route edges="edge1 edge0"/>
    </vehicle>
    <vehicle id="-flow-random-route-6740b950-c59b-4424-8f21-bf4dc4e007e2-6669253276321465921-8-0.0" type="actor-car-7453235526878232681" depart="0.00" departLane="1" departPos="254.36" departSpeed="max" arrivalLane="0" arrivalPos="136.92">
        <route edges="edge1 edge0"/>
    </vehicle>
    <vehicle id="-flow-random-route-6fc863c2-a611-4c48-b459-c5965f5b9e05-6669253276321465921-22-0.0" type="actor-car-7453235526878232681" depart="0.00" departLane="1" departPos="308.16" departSpeed="max" arrivalLane="2" arrivalPos="32.55">
        <route edges="edge1 edge0"/>
    </vehicle>
    <vehicle id="-flow-random-route-737cd806-2a60-49ec-9d3e-436cc58ba3e9-6669253276321465921-6-0.0" type="actor-car-7453235526878232681" depart="0.00" departLane="2" departPos="116.06" departSpeed="max" arrivalLane="2" arrivalPos="636.59">
        <route edges="edge0 edge1"/>
    </vehicle>
    <vehicle id="-flow-random-route-7d16aab8-ff64-491b-9363-6a4f9b4778e3-6669253276321465921-25-0.0" type="actor-car-7453235526878232681" depart="0.00" departLane="2" departPos="645.63" departSpeed="max" arrivalLane="2" arrivalPos="104.62">
        <route edges="edge1 edge0"/>
    </vehicle>
    <vehicle id="-flow-random-route-83a6005d-42df-49f5-81d7-397b7e962a98-6669253276321465921-18-0.0" type="actor-car-7453235526878232681" depart="0.00" departLane="1" departPos="43.41" departSpeed="max" arrivalLane="1" arrivalPos="581.57">
        <route edges="edge0 edge1"/>
    </vehicle>
    <vehicle id="-flow-random-route-8df6df46-dd0f-4005-a146-5fcf65a29919-6669253276321465921-9-0.0" type="actor-car-7453235526878232681" depart="0.00" departLane="2" departPos="8.25" departSpeed="max" arrivalLane="2" arrivalPos="686.49">
        <route edges="edge0 edge1"/>
    </vehicle>
    <vehicle id="-flow-random-route-9731df84-9566-4b45-b9ed-80cc81b5bb62-6669253276321465921-23-0.0" type="actor-car-7453235526878232681" depart="0.00" departLane="1" departPos="106.20" departSpeed="max" arrivalLane="2" arrivalPos="88.79">
        <route edges="edge0 edge1"/>
    </vehicle>
    <vehicle id="-flow-random-route-b6c40cb6-3df4-4b58-8852-91fceb4b2b50-6669253276321465921-5-0.0" type="actor-car-7453235526878232681" depart="0.00" departLane="1" departPos="27.20" departSpeed="max" arrivalLane="1" arrivalPos="26.69">
        <route edges="edge0 edge1"/>
    </vehicle>
    <vehicle id="-flow-random-route-bbdf140f-7c2d-4902-9475-0ff123115840-6669253276321465921-17-0.0" type="actor-car-7453235526878232681" depart="0.00" departLane="2" departPos="98.32" departSpeed="max" arrivalLane="1" arrivalPos="220.55">
        <route edges="edge0 edge1"/>
    </vehicle>
    <vehicle id="-flow-random-route-bc45b547-1b2a-41b2-b27e-0c95b79a7856-6669253276321465921-29-0.0" type="actor-car-7453235526878232681" depart="0.00" departLane="2" departPos="278.60" departSpeed="max" arrivalLane="0" arrivalPos="151.91">
        <route edges="edge1 edge0"/>
    </vehicle>
    <vehicle id="-flow-random-route-bfaaf734-b7a2-4528-9168-0fe90daa3559-6669253276321465921-2-0.0" type="actor-car-7453235526878232681" depart="0.00" departLane="1" departPos="212.88" departSpeed="max" arrivalLane="0" arrivalPos="33.96">
        <route edges="edge1 edge0"/>
    </vehicle>
    <vehicle id="-flow-random-route-c23be175-832a-446d-a07d-9f9cfbf5cd70-6669253276321465921-27-0.0" type="actor-car-7453235526878232681" depart="0.00" departLane="1" departPos="61.11" departSpeed="max" arrivalLane="0" arrivalPos="147.17">
        <route edges="edge0 edge1"/>
    </vehicle>
    <vehicle id="-flow-random-route-cb64110c-19bd-47a1-a089-e13eeed6783b-6669253276321465921-20-0.0" type="actor-car-7453235526878232681" depart="0.00" departLane="2" departPos="683.45" departSpeed="max" arrivalLane="0" arrivalPos="112.90">
        <route edges="edge1 edge0"/>
    </vehicle>
    <vehicle id="-flow-random-route-cf4e369d-8601-4598-a657-973fc31bfbb4-6669253276321465921-26-0.0" type="actor-car-7453235526878232681" depart="0.00" departLane="2" departPos="115.04" departSpeed="max" arrivalLane="2" arrivalPos="140.31">
        <route edges="edge0 edge1"/>
    </vehicle>
    <vehicle id="-flow-random-route-cfc579cf-b719-47f4-b014-61050b66d194-6669253276321465921-10-0.0" type="actor-car-7453235526878232681" depart="0.00" departLane="1" departPos="33.33" departSpeed="max" arrivalLane="2" arrivalPos="361.30">
        <route edges="edge0 edge1"/>
    </vehicle>
    <vehicle id="-flow-random-route-d46418d5-ec41-42de-8eec-332a51169952-6669253276321465921-19-0.0" type="actor-car-7453235526878232681" depart="0.00" departLane="0" departPos="131.70" departSpeed="max" arrivalLane="0" arrivalPos="114.84">
        <route edges="edge0 edge1"/>
    </vehicle>
    <vehicle id="-flow-random-route-e61d280f-d547-42e0-8834-6962056e75e4-6669253276321465921-11-0.0" type="actor-car-7453235526878232681" depart="0.00" departLane="0" departPos="88.22" departSpeed="max" arrivalLane="2" arrivalPos="42.52">
        <route edges="edge0 edge1"/>
    </vehicle>
    <vehicle id="-flow-random-route-ef3a2bed-8620-4089-ae4f-6908ce0a8c4a-6669253276321465921-15-0.0" type="actor-car-7453235526878232681" depart="0.00" departLane="0" departPos="32.24" departSpeed="max" arrivalLane="1" arrivalPos="93.11">
        <route edges="edge1 edge0"/>
    </vehicle>
    <vehicle id="-flow-random-route-f64a6ef8-b3a2-4469-84b3-fde45cab2875-6669253276321465921-16-0.0" type="actor-car-7453235526878232681" depart="0.00" departLane="0" departPos="461.26" departSpeed="max" arrivalLane="1" arrivalPos="150.07">
        <route edges="edge1 edge0"/>
    </vehicle>
    <vehicle id="-flow-random-route-ffffc8b5-44f0-4b1c-89df-301601945065-6669253276321465921-21-0.0" type="actor-car-7453235526878232681" depart="0.00" departLane="0" departPos="352.51" departSpeed="max" arrivalLane="0" arrivalPos="85.49">
        <route edges="edge1 edge0"/>
    </vehicle>
    <vehicle id="-flow-random-route-0857c317-b4e6-465e-8186-d49680863f7b-6669253276321465921-1-0.1" type="actor-car-7453235526878232681" depart="120.00" departLane="2" departPos="151.73" departSpeed="max" arrivalLane="2" arrivalPos="175.37">
        <route edges="edge0 edge1"/>
    </vehicle>
    <vehicle id="-flow-random-route-0f57c086-25bd-43fa-b6c8-80bb85304d22-6669253276321465921-14-0.1" type="actor-car-7453235526878232681" depart="120.00" departLane="0" departPos="42.43" departSpeed="max" arrivalLane="0" arrivalPos="609.99">
        <route edges="edge0 edge1"/>
    </vehicle>
    <vehicle id="-flow-random-route-2279c193-0367-425d-8513-d9a332c83f29-6669253276321465921-4-0.1" type="actor-car-7453235526878232681" depart="120.00" departLane="2" departPos="386.38" departSpeed="max" arrivalLane="2" arrivalPos="33.54">
        <route edges="edge1 edge0"/>
    </vehicle>
    <vehicle id="-flow-random-route-259fbddd-37a3-4368-baea-cfbc1ef82605-6669253276321465921-3-0.1" type="actor-car-7453235526878232681" depart="120.00" departLane="1" departPos="71.30" departSpeed="max" arrivalLane="1" arrivalPos="14.73">
        <route edges="edge1 edge0"/>
    </vehicle>
    <vehicle id="-flow-random-route-33653a44-cc5f-4948-afef-f4a8bb9a512c-6669253276321465921-13-0.1" type="actor-car-7453235526878232681" depart="120.00" departLane="0" departPos="112.19" departSpeed="max" arrivalLane="1" arrivalPos="545.75">
        <route edges="edge0 edge1"/>
    </vehicle>
    <vehicle id="-flow-random-route-45211aa8-a773-437a-bf7e-db0dea2b5db0-6669253276321465921-7-0.1" type="actor-car-7453235526878232681" depart="120.00" departLane="2" departPos="142.67" departSpeed="max" arrivalLane="2" arrivalPos="49.81">
        <route edges="edge0 edge1"/>
    </vehicle>
    <vehicle id="-flow-random-route-4b1a951a-5ced-45e0-a1a8-d8492a51f4ed-6669253276321465921-24-0.1" type="actor-car-7453235526878232681" depart="120.00" departLane="1" departPos="167.03" departSpeed="max" arrivalLane="0" arrivalPos="133.74">
        <route edges="edge1 edge0"/>
    </vehicle>
    <vehicle id="-flow-random-route-4d2da728-44fc-4457-9f19-a2d96a3086ae-6669253276321465921-12-0.1" type="actor-car-7453235526878232681" depart="120.00" departLane="2" departPos="20.15" departSpeed="max" arrivalLane="2" arrivalPos="401.93">
        <route edges="edge0 edge1"/>
    </vehicle>
    <vehicle id="-flow-random-route-4e1290b5-aea4-42dd-8dfa-a2f4bf34e251-6669253276321465921-0-0.1" type="actor-car-7453235526878232681" depart="120.00" departLane="2" departPos="146.92" departSpeed="max" arrivalLane="1" arrivalPos="31.01">
        <route edges="edge1 edge0"/>
    </vehicle>
    <vehicle id="-flow-random-route-5aae3fab-7d15-49be-9b4d-9ed0ddf9591e-6669253276321465921-28-0.1" type="actor-car-7453235526878232681" depart="120.00" departLane="1" departPos="83.63" departSpeed="max" arrivalLane="2" arrivalPos="37.50">
        <route edges="edge1 edge0"/>
    </vehicle>
    <vehicle id="-flow-random-route-6740b950-c59b-4424-8f21-bf4dc4e007e2-6669253276321465921-8-0.1" type="actor-car-7453235526878232681" depart="120.00" departLane="1" departPos="254.36" departSpeed="max" arrivalLane="0" arrivalPos="136.92">
        <route edges="edge1 edge0"/>
    </vehicle>
    <vehicle id="-flow-random-route-6fc863c2-a611-4c48-b459-c5965f5b9e05-6669253276321465921-22-0.1" type="actor-car-7453235526878232681" depart="120.00" departLane="1" departPos="308.16" departSpeed="max" arrivalLane="2" arrivalPos="32.55">
        <route edges="edge1 edge0"/>
    </vehicle>
    <vehicle id="-flow-random-route-737cd806-2a60-49ec-9d3e-436cc58ba3e9-6669253276321465921-6-0.1" type="actor-car-7453235526878232681" depart="120.00" departLane="2" departPos="116.06" departSpeed="max" arrivalLane="2" arrivalPos="636.59">
        <route edges="edge0 edge1"/>
    </vehicle>
    <vehicle id="-flow-random-route-7d16aab8-ff64-491b-9363-6a4f9b4778e3-6669253276321465921-25-0.1" type="actor-car-7453235526878232681" depart="120.00" departLane="2" departPos="645.63" departSpeed="max" arrivalLane="2" arrivalPos="104.62">
        <route edges="edge1 edge0"/>
    </vehicle>
    <vehicle id="-flow-random-route-83a6005d-42df-49f5-81d7-397b7e962a98-6669253276321465921-18-0.1" type="actor-car-7453235526878232681" depart="120.00" departLane="1" departPos="43.41" departSpeed="max" arrivalLane="1" arrivalPos="581.57">
        <route edges="edge0 edge1"/>
    </vehicle>
    <vehicle id="-flow-random-route-8df6df46-dd0f-4005-a146-5fcf65a29919-6669253276321465921-9-0.1" type="actor-car-7453235526878232681" depart="120.00" departLane="2" departPos="8.25" departSpeed="max" arrivalLane="2" arrivalPos="686.49">
        <route edges="edge0 edge1"/>
    </vehicle>
    <vehicle id="-flow-random-route-9731df84-9566-4b45-b9ed-80cc81b5bb62-6669253276321465921-23-0.1" type="actor-car-7453235526878232681" depart="120.00" departLane="1" departPos="106.20" departSpeed="max" arrivalLane="2" arrivalPos="88.79">
        <route edges="edge0 edge1"/>
    </vehicle>
    <vehicle id="-flow-random-route-b6c40cb6-3df4-4b58-8852-91fceb4b2b50-6669253276321465921-5-0.1" type="actor-car-7453235526878232681" depart="120.00" departLane="1" departPos="27.20" departSpeed="max" arrivalLane="1" arrivalPos="26.69">
        <route edges="edge0 edge1"/>
    </vehicle>
    <vehicle id="-flow-random-route-bbdf140f-7c2d-4902-9475-0ff123115840-6669253276321465921-17-0.1" type="actor-car-7453235526878232681" depart="120.00" departLane="2" departPos="98.32" departSpeed="max" arrivalLane="1" arrivalPos="220.55">
        <route edges="edge0 edge1"/>
    </vehicle>
    <vehicle id="-flow-random-route-bc45b547-1b2a-41b2-b27e-0c95b79a7856-6669253276321465921-29-0.1" type="actor-car-7453235526878232681" depart="120.00" departLane="2" departPos="278.60" departSpeed="max" arrivalLane="0" arrivalPos="151.91">
        <route edges="edge1 edge0"/>
    </vehicle>
    <vehicle id="-flow-random-route-bfaaf734-b7a2-4528-9168-0fe90daa3559-6669253276321465921-2-0.1" type="actor-car-7453235526878232681" depart="120.00" departLane="1" departPos="212.88" departSpeed="max" arrivalLane="0" arrivalPos="33.96">
        <route edges="edge1 edge0"/>
    </vehicle>
    <vehicle id="-flow-random-route-c23be175-832a-446d-a07d-9f9cfbf5cd70-6669253276321465921-27-0.1" type="actor-car-7453235526878232681" depart="120.00" departLane="1" departPos="61.11" departSpeed="max" arrivalLane="0" arrivalPos="147.17">
        <route edges="edge0 edge1"/>
    </vehicle>
    <vehicle id="-flow-random-route-cb64110c-19bd-47a1-a089-e13eeed6783b-6669253276321465921-20-0.1" type="actor-car-7453235526878232681" depart="120.00" departLane="2" departPos="683.45" departSpeed="max" arrivalLane="0" arrivalPos="112.90">
        <route edges="edge1 edge0"/>
    </vehicle>
    <vehicle id="-flow-random-route-cf4e369d-8601-4598-a657-973fc31bfbb4-6669253276321465921-26-0.1" type="actor-car-7453235526878232681" depart="120.00" departLane="2" departPos="115.04" departSpeed="max" arrivalLane="2" arrivalPos="140.31">
        <route edges="edge0 edge1"/>
    </vehicle>
    <vehicle id="-flow-random-route-cfc579cf-b719-47f4-b014-61050b66d194-6669253276321465921-10-0.1" type="actor-car-7453235526878232681" depart="120.00" departLane="1" departPos="33.33" departSpeed="max" arrivalLane="2" arrivalPos="361.30">
        <route edges="edge0 edge1"/>
    </vehicle>
    <vehicle id="-flow-random-route-d46418d5-ec41-42de-8eec-332a51169952-6669253276321465921-19-0.1" type="actor-car-7453235526878232681" depart="120.00" departLane="0" departPos="131.70" departSpeed="max" arrivalLane="0" arrivalPos="114.84">
        <route edges="edge0 edge1"/>
    </vehicle>
    <vehicle id="-flow-random-route-e61d280f-d547-42e0-8834-6962056e75e4-6669253276321465921-11-0.1" type="actor-car-7453235526878232681" depart="120.00" departLane="0" departPos="88.22" departSpeed="max" arrivalLane="2" arrivalPos="42.52">
        <route edges="edge0 edge1"/>
    </vehicle>
    <vehicle id="-flow-random-route-ef3a2bed-8620-4089-ae4f-6908ce0a8c4a-6669253276321465921-15-0.1" type="actor-car-7453235526878232681" depart="120.00" departLane="0" departPos="32.24" departSpeed="max" arrivalLane="1" arrivalPos="93.11">
        <route edges="edge1 edge0"/>
    </vehicle>
    <vehicle id="-flow-random-route-f64a6ef8-b3a2-4469-84b3-fde45cab2875-6669253276321465921-16-0.1" type="actor-car-7453235526878232681" depart="120.00" departLane="0" departPos="461.26" departSpeed="max" arrivalLane="1" arrivalPos="150.07">
        <route edges="edge1 edge0"/>
    </vehicle>
    <vehicle id="-flow-random-route-ffffc8b5-44f0-4b1c-89df-301601945065-6669253276321465921-21-0.1" type="actor-car-7453235526878232681" depart="120.00" departLane="0" departPos="352.51" departSpeed="max" arrivalLane="0" arrivalPos="85.49">
        <route edges="edge1 edge0"/>
    </vehicle>
    <vehicle id="-flow-random-route-0857c317-b4e6-465e-8186-d49680863f7b-6669253276321465921-1-0.2" type="actor-car-7453235526878232681" depart="240.00" departLane="2" departPos="151.73" departSpeed="max" arrivalLane="2" arrivalPos="175.37">
        <route edges="edge0 edge1"/>
    </vehicle>
    <vehicle id="-flow-random-route-0f57c086-25bd-43fa-b6c8-80bb85304d22-6669253276321465921-14-0.2" type="actor-car-7453235526878232681" depart="240.00" departLane="0" departPos="42.43" departSpeed="max" arrivalLane="0" arrivalPos="609.99">
        <route edges="edge0 edge1"/>
    </vehicle>
    <vehicle id="-flow-random-route-2279c193-0367-425d-8513-d9a332c83f29-6669253276321465921-4-0.2" type="actor-car-7453235526878232681" depart="240.00" departLane="2" departPos="386.38" departSpeed="max" arrivalLane="2" arrivalPos="33.54">
        <route edges="edge1 edge0"/>
    </vehicle>
    <vehicle id="-flow-random-route-259fbddd-37a3-4368-baea-cfbc1ef82605-6669253276321465921-3-0.2" type="actor-car-7453235526878232681" depart="240.00" departLane="1" departPos="71.30" departSpeed="max" arrivalLane="1" arrivalPos="14.73">
        <route edges="edge1 edge0"/>
    </vehicle>
    <vehicle id="-flow-random-route-33653a44-cc5f-4948-afef-f4a8bb9a512c-6669253276321465921-13-0.2" type="actor-car-7453235526878232681" depart="240.00" departLane="0" departPos="112.19" departSpeed="max" arrivalLane="1" arrivalPos="545.75">
        <route edges="edge0 edge1"/>
    </vehicle>
    <vehicle id="-flow-random-route-45211aa8-a773-437a-bf7e-db0dea2b5db0-6669253276321465921-7-0.2" type="actor-car-7453235526878232681" depart="240.00" departLane="2" departPos="142.67" departSpeed="max" arrivalLane="2" arrivalPos="49.81">
        <route edges="edge0 edge1"/>
    </vehicle>
    <vehicle id="-flow-random-route-4b1a951a-5ced-45e0-a1a8-d8492a51f4ed-6669253276321465921-24-0.2" type="actor-car-7453235526878232681" depart="240.00" departLane="1" departPos="167.03" departSpeed="max" arrivalLane="0" arrivalPos="133.74">
        <route edges="edge1 edge0"/>
    </vehicle>
    <vehicle id="-flow-random-route-4d2da728-44fc-4457-9f19-a2d96a3086ae-6669253276321465921-12-0.2" type="actor-car-7453235526878232681" depart="240.00" departLane="2" departPos="20.15" departSpeed="max" arrivalLane="2" arrivalPos="401.93">
        <route edges="edge0 edge1"/>
    </vehicle>
    <vehicle id="-flow-random-route-4e1290b5-aea4-42dd-8dfa-a2f4bf34e251-6669253276321465921-0-0.2" type="actor-car-7453235526878232681" depart="240.00" departLane="2" departPos="146.92" departSpeed="max" arrivalLane="1" arrivalPos="31.01">
        <route edges="edge1 edge0"/>
    </vehicle>
    <vehicle id="-flow-random-route-5aae3fab-7d15-49be-9b4d-9ed0ddf9591e-6669253276321465921-28-0.2" type="actor-car-7453235526878232681" depart="240.00" departLane="1" departPos="83.63" departSpeed="max" arrivalLane="2" arrivalPos="37.50">
        <route edges="edge1 edge0"/>
    </vehicle>
    <vehicle id="-flow-random-route-6740b950-c59b-4424-8f21-bf4dc4e007e2-6669253276321465921-8-0.2" type="actor-car-7453235526878232681" depart="240.00" departLane="1" departPos="254.36" departSpeed="max" arrivalLane="0" arrivalPos="136.92">
        <route edges="edge1 edge0"/>
    </vehicle>
    <vehicle id="-flow-random-route-6fc863c2-a611-4c48-b459-c5965f5b9e05-6669253276321465921-22-0.2" type="actor-car-7453235526878232681" depart="240.00" departLane="1" departPos="308.16" departSpeed="max" arrivalLane="2" arrivalPos="32.55">
        <route edges="edge1 edge0"/>
    </vehicle>
    <vehicle id="-flow-random-route-737cd806-2a60-49ec-9d3e-436cc58ba3e9-6669253276321465921-6-0.2" type="actor-car-7453235526878232681" depart="240.00" departLane="2" departPos="116.06" departSpeed="max" arrivalLane="2" arrivalPos="636.59">
        <route edges="edge0 edge1"/>
    </vehicle>
    <vehicle id="-flow-random-route-7d16aab8-ff64-491b-9363-6a4f9b4778e3-6669253276321465921-25-0.2" type="actor-car-7453235526878232681" depart="240.00" departLane="2" departPos="645.63" departSpeed="max" arrivalLane="2" arrivalPos="104.62">
        <route edges="edge1 edge0"/>
    </vehicle>
    <vehicle id="-flow-random-route-83a6005d-42df-49f5-81d7-397b7e962a98-6669253276321465921-18-0.2" type="actor-car-7453235526878232681" depart="240.00" departLane="1" departPos="43.41" departSpeed="max" arrivalLane="1" arrivalPos="581.57">
        <route edges="edge0 edge1"/>
    </vehicle>
    <vehicle id="-flow-random-route-8df6df46-dd0f-4005-a146-5fcf65a29919-6669253276321465921-9-0.2" type="actor-car-7453235526878232681" depart="240.00" departLane="2" departPos="8.25" departSpeed="max" arrivalLane="2" arrivalPos="686.49">
        <route edges="edge0 edge1"/>
    </vehicle>
    <vehicle id="-flow-random-route-9731df84-9566-4b45-b9ed-80cc81b5bb62-6669253276321465921-23-0.2" type="actor-car-7453235526878232681" depart="240.00" departLane="1" departPos="106.20" departSpeed="max" arrivalLane="2" arrivalPos="88.79">
        <route edges="edge0 edge1"/>
    </vehicle>
    <vehicle id="-flow-random-route-b6c40cb6-3df4-4b58-8852-91fceb4b2b50-6669253276321465921-5-0.2" type="actor-car-7453235526878232681" depart="240.00" departLane="1" departPos="27.20" departSpeed="max" arrivalLane="1" arrivalPos="26.69">
        <route edges="edge0 edge1"/>
    </vehicle>
    <vehicle id="-flow-random-route-bbdf140f-7c2d-4902-9475-0ff123115840-6669253276321465921-17-0.2" type="actor-car-7453235526878232681" depart="240.00" departLane="2" departPos="98.32" departSpeed="max" arrivalLane="1" arrivalPos="220.55">
        <route edges="edge0 edge1"/>
    </vehicle>
    <vehicle id="-flow-random-route-bc45b547-1b2a-41b2-b27e-0c95b79a7856-6669253276321465921-29-0.2" type="actor-car-7453235526878232681" depart="240.00" departLane="2" departPos="278.60" departSpeed="max" arrivalLane="0" arrivalPos="151.91">
        <route edges="edge1 edge0"/>
    </vehicle>
    <vehicle id="-flow-random-route-bfaaf734-b7a2-4528-9168-0fe90daa3559-6669253276321465921-2-0.2" type="actor-car-7453235526878232681" depart="240.00" departLane="1" departPos="212.88" departSpeed="max" arrivalLane="0" arrivalPos="33.96">
        <route edges="edge1 edge0"/>
    </vehicle>
    <vehicle id="-flow-random-route-c23be175-832a-446d-a07d-9f9cfbf5cd70-6669253276321465921-27-0.2" type="actor-car-7453235526878232681" depart="240.00" departLane="1" departPos="61.11" departSpeed="max" arrivalLane="0" arrivalPos="147.17">
        <route edges="edge0 edge1"/>
    </vehicle>
    <vehicle id="-flow-random-route-cb64110c-19bd-47a1-a089-e13eeed6783b-6669253276321465921-20-0.2" type="actor-car-7453235526878232681" depart="240.00" departLane="2" departPos="683.45" departSpeed="max" arrivalLane="0" arrivalPos="112.90">
        <route edges="edge1 edge0"/>
    </vehicle>
    <vehicle id="-flow-random-route-cf4e369d-8601-4598-a657-973fc31bfbb4-6669253276321465921-26-0.2" type="actor-car-7453235526878232681" depart="240.00" departLane="2" departPos="115.04" departSpeed="max" arrivalLane="2" arrivalPos="140.31">
        <route edges="edge0 edge1"/>
    </vehicle>
    <vehicle id="-flow-random-route-cfc579cf-b719-47f4-b014-61050b66d194-6669253276321465921-10-0.2" type="actor-car-7453235526878232681" depart="240.00" departLane="1" departPos="33.33" departSpeed="max" arrivalLane="2" arrivalPos="361.30">
        <route edges="edge0 edge1"/>
    </vehicle>
    <vehicle id="-flow-random-route-d46418d5-ec41-42de-8eec-332a51169952-6669253276321465921-19-0.2" type="actor-car-7453235526878232681" depart="240.00" departLane="0" departPos="131.70" departSpeed="max" arrivalLane="0" arrivalPos="114.84">
        <route edges="edge0 edge1"/>
    </vehicle>
    <vehicle id="-flow-random-route-e61d280f-d547-42e0-8834-6962056e75e4-6669253276321465921-11-0.2" type="actor-car-7453235526878232681" depart="240.00" departLane="0" departPos="88.22" departSpeed="max" arrivalLane="2" arrivalPos="42.52">
        <route edges="edge0 edge1"/>
    </vehicle>
    <vehicle id="-flow-random-route-ef3a2bed-8620-4089-ae4f-6908ce0a8c4a-6669253276321465921-15-0.2" type="actor-car-7453235526878232681" depart="240.00" departLane="0" departPos="32.24" departSpeed="max" arrivalLane="1" arrivalPos="93.11">
        <route edges="edge1 edge0"/>
    </vehicle>
    <vehicle id="-flow-random-route-f64a6ef8-b3a2-4469-84b3-fde45cab2875-6669253276321465921-16-0.2" type="actor-car-7453235526878232681" depart="240.00" departLane="0" departPos="461.26" departSpeed="max" arrivalLane="1" arrivalPos="150.07">
        <route edges="edge1 edge0"/>
    </vehicle>
    <vehicle id="-flow-random-route-ffffc8b5-44f0-4b1c-89df-301601945065-6669253276321465921-21-0.2" type="actor-car-7453235526878232681" depart="240.00" departLane="0" departPos="352.51" departSpeed="max" arrivalLane="0" arrivalPos="85.49">
        <route edges="edge1 edge0"/>
    </vehicle>
    <vehicle id="-flow-random-route-0857c317-b4e6-465e-8186-d49680863f7b-6669253276321465921-1-0.3" type="actor-car-7453235526878232681" depart="360.00" departLane="2" departPos="151.73" departSpeed="max" arrivalLane="2" arrivalPos="175.37">
        <route edges="edge0 edge1"/>
    </vehicle>
    <vehicle id="-flow-random-route-0f57c086-25bd-43fa-b6c8-80bb85304d22-6669253276321465921-14-0.3" type="actor-car-7453235526878232681" depart="360.00" departLane="0" departPos="42.43" departSpeed="max" arrivalLane="0" arrivalPos="609.99">
        <route edges="edge0 edge1"/>
    </vehicle>
    <vehicle id="-flow-random-route-2279c193-0367-425d-8513-d9a332c83f29-6669253276321465921-4-0.3" type="actor-car-7453235526878232681" depart="360.00" departLane="2" departPos="386.38" departSpeed="max" arrivalLane="2" arrivalPos="33.54">
        <route edges="edge1 edge0"/>
    </vehicle>
    <vehicle id="-flow-random-route-259fbddd-37a3-4368-baea-cfbc1ef82605-6669253276321465921-3-0.3" type="actor-car-7453235526878232681" depart="360.00" departLane="1" departPos="71.30" departSpeed="max" arrivalLane="1" arrivalPos="14.73">
        <route edges="edge1 edge0"/>
    </vehicle>
    <vehicle id="-flow-random-route-33653a44-cc5f-4948-afef-f4a8bb9a512c-6669253276321465921-13-0.3" type="actor-car-7453235526878232681" depart="360.00" departLane="0" departPos="112.19" departSpeed="max" arrivalLane="1" arrivalPos="545.75">
        <route edges="edge0 edge1"/>
    </vehicle>
    <vehicle id="-flow-random-route-45211aa8-a773-437a-bf7e-db0dea2b5db0-6669253276321465921-7-0.3" type="actor-car-7453235526878232681" depart="360.00" departLane="2" departPos="142.67" departSpeed="max" arrivalLane="2" arrivalPos="49.81">
        <route edges="edge0 edge1"/>
    </vehicle>
    <vehicle id="-flow-random-route-4b1a951a-5ced-45e0-a1a8-d8492a51f4ed-6669253276321465921-24-0.3" type="actor-car-7453235526878232681" depart="360.00" departLane="1" departPos="167.03" departSpeed="max" arrivalLane="0" arrivalPos="133.74">
        <route edges="edge1 edge0"/>
    </vehicle>