<?xml version="1.0" encoding="UTF-8"?>

<!-- generated on Fri Sep 18 03:15:30 2020 by Eclipse SUMO duarouter Version 1.6.0
<configuration xmlns:xsi="http://www.w3.org/2001/XMLSchema-instance" xsi:noNamespaceSchemaLocation="http://sumo.dlr.de/xsd/duarouterConfiguration.xsd">

    <input>
        <net-file value="dataset_public/intersection_loop/its_a/map.net.xml"/>
        <route-files value="/tmp/tmpg5oe_y4x/trips.trips.xml"/>
    </input>

    <output>
        <output-file value="dataset_public/intersection_loop/its_a/traffic/30_patient_car.rou.xml"/>
        <alternatives-output value="dataset_public/intersection_loop/its_a/traffic/30_patient_car.rou.alt.xml"/>
    </output>

    <processing>
        <unsorted-input value="true"/>
        <repair value="true"/>
    </processing>

    <report>
        <error-log value="/tmp/smarts/_duarouter_routing/traffic/30_patient_car.log"/>
        <no-step-log value="true"/>
    </report>

    <random_number>
        <seed value="42"/>
    </random_number>

</configuration>
-->

<routes xmlns:xsi="http://www.w3.org/2001/XMLSchema-instance" xsi:noNamespaceSchemaLocation="http://sumo.dlr.de/xsd/routes_file.xsd">
    <vType id="actor-car--4847507716475449556" minGap="2.50" speedFactor="normc(0.50,0.20,0.20,2.00)" vClass="passenger" impatience="0.50" lcCooperative="0.5" lcImpatience="0" jmDriveAfterYellowTime="1.0" accel="2.6" decel="4.5" sigma="0.5"/>
    <vehicle id="-flow-random-route-06142538-ed9c-42b2-b265-c1e937f3409b--8297247457912691899-21-0.0" type="actor-car--4847507716475449556" depart="0.00" departLane="0" departPos="103.85" departSpeed="max" arrivalLane="0" arrivalPos="11.20">
        <route edges="-gneE12 gneE11 gneE13 gneE14 gneE15"/>
    </vehicle>
    <vehicle id="-flow-random-route-09a6ef20-bbc7-462d-815b-e58609bee274--8297247457912691899-17-0.0" type="actor-car--4847507716475449556" depart="0.00" departLane="0" departPos="10.47" departSpeed="max" arrivalLane="0" arrivalPos="77.88">
        <route edges="-gneE11 gneE12 gneE8 gneE9 gneE2 gneE11 gneE13 gneE14 gneE15 -gneE12"/>
    </vehicle>
    <vehicle id="-flow-random-route-0a119481-10a1-42e4-9c74-bcf9aaf97a1c--8297247457912691899-6-0.0" type="actor-car--4847507716475449556" depart="0.00" departLane="0" departPos="97.81" departSpeed="max" arrivalLane="0" arrivalPos="75.07">
        <route edges="-gneE14 -gneE13 -gneE11 gneE12 gneE8 gneE9 gneE2 gneE11 gneE13 gneE14"/>
    </vehicle>
    <vehicle id="-flow-random-route-1d5202bb-5d86-49ea-ba37-fae1726d2d39--8297247457912691899-29-0.0" type="actor-car--4847507716475449556" depart="0.00" departLane="0" departPos="37.51" departSpeed="max" arrivalLane="0" arrivalPos="44.48">
        <route edges="gneE9 gneE2 gneE12 -gneE15 -gneE14 -gneE13 -gneE11 gneE12 gneE8 gneE9"/>
    </vehicle>
    <vehicle id="-flow-random-route-1e2b33d2-0240-47ae-aaae-91b966fd4783--8297247457912691899-25-0.0" type="actor-car--4847507716475449556" depart="0.00" departLane="0" departPos="77.55" departSpeed="max" arrivalLane="0" arrivalPos="39.51">
        <route edges="-gneE14 -gneE13 -gneE11 gneE12 -gneE15"/>
    </vehicle>
    <vehicle id="-flow-random-route-2faee46b-a993-4681-9db5-30e2430b8b98--8297247457912691899-3-0.0" type="actor-car--4847507716475449556" depart="0.00" departLane="0" departPos="36.42" departSpeed="max" arrivalLane="0" arrivalPos="20.79">
        <route edges="gneE15 -gneE12 gneE11 gneE13 gneE14 gneE15 gneE8 gneE9 gneE2 gneE12"/>
    </vehicle>
    <vehicle id="-flow-random-route-3833416e-3312-49a5-85ac-7cda161f52f9--8297247457912691899-26-0.0" type="actor-car--4847507716475449556" depart="0.00" departLane="0" departPos="6.12" departSpeed="max" arrivalLane="0" arrivalPos="54.03">
        <route edges="gneE15 -gneE12 gneE11 gneE13 gneE14 gneE15 gneE8 gneE9 gneE2 gneE12"/>
    </vehicle>
    <vehicle id="-flow-random-route-53e72ab6-d7a1-4517-824b-abdfb704d6b6--8297247457912691899-1-0.0" type="actor-car--4847507716475449556" depart="0.00" departLane="0" departPos="10.46" departSpeed="max" arrivalLane="0" arrivalPos="16.57">
        <route edges="gneE11 gneE13 gneE14 gneE15 -gneE12"/>
    </vehicle>
    <vehicle id="-flow-random-route-563fea25-381e-4eb0-935d-a99e16367542--8297247457912691899-7-0.0" type="actor-car--4847507716475449556" depart="0.00" departLane="0" departPos="102.33" departSpeed="max" arrivalLane="0" arrivalPos="23.88">
        <route edges="gneE14 gneE15 -gneE12 gneE11 gneE13 gneE14 gneE15 gneE8 gneE9 gneE2"/>
    </vehicle>
    <vehicle id="-flow-random-route-72bda561-8a0c-4741-b470-51399da03682--8297247457912691899-28-0.0" type="actor-car--4847507716475449556" depart="0.00" departLane="0" departPos="29.97" departSpeed="max" arrivalLane="0" arrivalPos="7.56">
        <route edges="gneE2 gneE11 gneE13 gneE14 gneE15"/>
    </vehicle>
    <vehicle id="-flow-random-route-7dc1eaf1-9fe2-40b8-b1fa-601b978f9d66--8297247457912691899-24-0.0" type="actor-car--4847507716475449556" depart="0.00" departLane="0" departPos="29.29" departSpeed="max" arrivalLane="0" arrivalPos="49.45">
        <route edges="gneE13 gneE14 gneE15 -gneE12 gneE11"/>
    </vehicle>
    <vehicle id="-flow-random-route-88cc9943-9c37-4882-a50d-c3afcc21d4de--8297247457912691899-0-0.0" type="actor-car--4847507716475449556" depart="0.00" departLane="0" departPos="31.59" departSpeed="max" arrivalLane="0" arrivalPos="42.51">
        <route edges="gneE15 -gneE12 gneE11 gneE13 gneE14"/>
    </vehicle>
    <vehicle id="-flow-random-route-914ff694-cd15-4e5b-affe-712d55a4800c--8297247457912691899-27-0.0" type="actor-car--4847507716475449556" depart="0.00" departLane="0" departPos="38.66" departSpeed="max" arrivalLane="1" arrivalPos="23.48">
        <route edges="gneE2 gneE12 gneE8"/>
    </vehicle>
    <vehicle id="-flow-random-route-95809090-5fba-4b93-8ace-a8118026e1d2--8297247457912691899-13-0.0" type="actor-car--4847507716475449556" depart="0.00" departLane="0" departPos="45.47" departSpeed="max" arrivalLane="0" arrivalPos="62.53">
        <route edges="gneE12 -gneE15 -gneE14 -gneE13 -gneE11 gneE12"/>
    </vehicle>
    <vehicle id="-flow-random-route-998137f5-ac9f-4b37-a694-c4a05c8e2d0a--8297247457912691899-10-0.0" type="actor-car--4847507716475449556" depart="0.00" departLane="0" departPos="22.44" departSpeed="max" arrivalLane="0" arrivalPos="114.48">
        <route edges="gneE12 gneE8 gneE9 gneE2 gneE12"/>
    </vehicle>
    <vehicle id="-flow-random-route-9fa6b4a2-52b5-4a5d-baef-d332e5c5a999--8297247457912691899-14-0.0" type="actor-car--4847507716475449556" depart="0.00" departLane="0" departPos="56.02" departSpeed="max" arrivalLane="1" arrivalPos="4.81">
        <route edges="gneE8 gneE9 gneE2"/>
    </vehicle>
    <vehicle id="-flow-random-route-a17e1b09-09a9-4e02-83ed-1cf386495439--8297247457912691899-23-0.0" type="actor-car--4847507716475449556" depart="0.00" departLane="0" departPos="25.52" departSpeed="max" arrivalLane="0" arrivalPos="32.84">
        <route edges="-gneE15 -gneE14 -gneE13 -gneE11 gneE12 gneE8"/>
    </vehicle>
    <vehicle id="-flow-random-route-a49628df-b83d-451b-9415-8c11d986d6a4--8297247457912691899-20-0.0" type="actor-car--4847507716475449556" depart="0.00" departLane="0" departPos="68.23" departSpeed="max" arrivalLane="0" arrivalPos="4.65">
        <route edges="gneE12 gneE8 gneE9"/>
    </vehicle>
    <vehicle id="-flow-random-route-ad7246fe-bd0c-48c2-a9cf-9dc9c22af88e--8297247457912691899-9-0.0" type="actor-car--4847507716475449556" depart="0.00" departLane="0" departPos="48.96" departSpeed="max" arrivalLane="1" arrivalPos="39.54">
        <route edges="-gneE14 -gneE13 -gneE11 gneE12 -gneE15 -gneE14 -gneE13 -gneE11 gneE12 gneE8"/>
    </vehicle>
    <vehicle id="-flow-random-route-b76bddd0-5866-4103-82d7-7742572b6769--8297247457912691899-2-0.0" type="actor-car--4847507716475449556" depart="0.00" departLane="0" departPos="63.68" departSpeed="max" arrivalLane="0" arrivalPos="19.34">
        <route edges="gneE14 gneE15 -gneE12 gneE11 gneE13"/>
    </vehicle>
    <vehicle id="-flow-random-route-b8332bfa-232d-4416-a1a9-cb219462a717--8297247457912691899-19-0.0" type="actor-car--4847507716475449556" depart="0.00" departLane="0" departPos="35.79" departSpeed="max" arrivalLane="0" arrivalPos="61.44">
        <route edges="-gneE15 -gneE14 -gneE13 -gneE11 gneE12"/>
    </vehicle>
    <vehicle id="-flow-random-route-b862518b-389d-49c3-a51a-b255f974115e--8297247457912691899-12-0.0" type="actor-car--4847507716475449556" depart="0.00" departLane="0" departPos="36.07" departSpeed="max" arrivalLane="0" arrivalPos="26.35">
        <route edges="gneE12 gneE8 gneE9 gneE2 gneE12"/>
    </vehicle>
    <vehicle id="-flow-random-route-bff6b1cb-df73-4a68-a03e-212fc7983b47--8297247457912691899-22-0.0" type="actor-car--4847507716475449556" depart="0.00" departLane="1" departPos="40.85" departSpeed="max" arrivalLane="0" arrivalPos="30.50">
        <route edges="gneE9 gneE2 gneE11"/>
    </vehicle>
    <vehicle id="-flow-random-route-c2c55a5f-9462-4fb2-a34f-b67ceda48955--8297247457912691899-8-0.0" type="actor-car--4847507716475449556" depart="0.00" departLane="0" departPos="88.28" departSpeed="max" arrivalLane="0" arrivalPos="85.30">
        <route edges="-gneE12 gneE11 gneE13"/>
    </vehicle>
    <vehicle id="-flow-random-route-c46e6551-d7db-4441-82f6-98b068a2703f--8297247457912691899-11-0.0" type="actor-car--4847507716475449556" depart="0.00" departLane="1" departPos="52.50" departSpeed="max" arrivalLane="0" arrivalPos="47.39">
        <route edges="gneE8 gneE9 gneE2 gneE12 gneE8 gneE9 gneE2 gneE11 gneE13 gneE14"/>
    </vehicle>
    <vehicle id="-flow-random-route-c8a333e2-668d-4983-8328-de97562a25ab--8297247457912691899-15-0.0" type="actor-car--4847507716475449556" depart="0.00" departLane="0" departPos="41.04" departSpeed="max" arrivalLane="1" arrivalPos="10.05">
        <route edges="-gneE13 -gneE11 gneE12 gneE8 gneE9 gneE2"/>
    </vehicle>
    <vehicle id="-flow-random-route-dc3c8554-8dd8-494d-8e55-afee00e7a73c--8297247457912691899-5-0.0" type="actor-car--4847507716475449556" depart="0.00" departLane="0" departPos="22.06" departSpeed="max" arrivalLane="0" arrivalPos="73.89">
        <route edges="-gneE14 -gneE13 -gneE11 gneE12 gneE8 gneE9 gneE2 gneE11 gneE13 gneE14"/>
    </vehicle>
    <vehicle id="-flow-random-route-e8d2976a-3e3f-40bc-96bf-ba823253c41f--8297247457912691899-4-0.0" type="actor-car--4847507716475449556" depart="0.00" departLane="0" departPos="2.57" departSpeed="max" arrivalLane="0" arrivalPos="93.48">
        <route edges="gneE14 gneE15 -gneE12 gneE11 gneE13"/>
    </vehicle>
    <vehicle id="-flow-random-route-f0f8c126-4f84-4057-a523-7d2935ae025e--8297247457912691899-16-0.0" type="actor-car--4847507716475449556" depart="0.00" departLane="0" departPos="41.26" departSpeed="max" arrivalLane="0" arrivalPos="18.03">
        <route edges="gneE2 gneE12 -gneE15 -gneE14 -gneE13"/>
    </vehicle>
    <vehicle id="-flow-random-route-fec9963c-ba16-4beb-800d-2529b309eb02--8297247457912691899-18-0.0" type="actor-car--4847507716475449556" depart="0.00" departLane="0" departPos="0.85" departSpeed="max" arrivalLane="0" arrivalPos="27.06">
        <route edges="gneE12 -gneE15 -gneE14 -gneE13 -gneE11 gneE12"/>
    </vehicle>
    <vehicle id="-flow-random-route-06142538-ed9c-42b2-b265-c1e937f3409b--8297247457912691899-21-0.1" type="actor-car--4847507716475449556" depart="120.00" departLane="0" departPos="103.85" departSpeed="max" arrivalLane="0" arrivalPos="11.20">
        <route edges="-gneE12 gneE11 gneE13 gneE14 gneE15"/>
    </vehicle>
    <vehicle id="-flow-random-route-09a6ef20-bbc7-462d-815b-e58609bee274--8297247457912691899-17-0.1" type="actor-car--4847507716475449556" depart="120.00" departLane="0" departPos="10.47" departSpeed="max" arrivalLane="0" arrivalPos="77.88">
        <route edges="-gneE11 gneE12 gneE8 gneE9 gneE2 gneE11 gneE13 gneE14 gneE15 -gneE12"/>
    </vehicle>
    <vehicle id="-flow-random-route-0a119481-10a1-42e4-9c74-bcf9aaf97a1c--8297247457912691899-6-0.1" type="actor-car--4847507716475449556" depart="120.00" departLane="0" departPos="97.81" departSpeed="max" arrivalLane="0" arrivalPos="75.07">
        <route edges="-gneE14 -gneE13 -gneE11 gneE12 gneE8 gneE9 gneE2 gneE11 gneE13 gneE14"/>
    </vehicle>
    <vehicle id="-flow-random-route-1d5202bb-5d86-49ea-ba37-fae1726d2d39--8297247457912691899-29-0.1" type="actor-car--4847507716475449556" depart="120.00" departLane="0" departPos="37.51" departSpeed="max" arrivalLane="0" arrivalPos="44.48">
        <route edges="gneE9 gneE2 gneE12 -gneE15 -gneE14 -gneE13 -gneE11 gneE12 gneE8 gneE9"/>
    </vehicle>
    <vehicle id="-flow-random-route-1e2b33d2-0240-47ae-aaae-91b966fd4783--8297247457912691899-25-0.1" type="actor-car--4847507716475449556" depart="120.00" departLane="0" departPos="77.55" departSpeed="max" arrivalLane="0" arrivalPos="39.51">
        <route edges="-gneE14 -gneE13 -gneE11 gneE12 -gneE15"/>
    </vehicle>
    <vehicle id="-flow-random-route-2faee46b-a993-4681-9db5-30e2430b8b98--8297247457912691899-3-0.1" type="actor-car--4847507716475449556" depart="120.00" departLane="0" departPos="36.42" departSpeed="max" arrivalLane="0" arrivalPos="20.79">
        <route edges="gneE15 -gneE12 gneE11 gneE13 gneE14 gneE15 gneE8 gneE9 gneE2 gneE12"/>
    </vehicle>
    <vehicle id="-flow-random-route-3833416e-3312-49a5-85ac-7cda161f52f9--8297247457912691899-26-0.1" type="actor-car--4847507716475449556" depart="120.00" departLane="0" departPos="6.12" departSpeed="max" arrivalLane="0" arrivalPos="54.03">
        <route edges="gneE15 -gneE12 gneE11 gneE13 gneE14 gneE15 gneE8 gneE9 gneE2 gneE12"/>
    </vehicle>
    <vehicle id="-flow-random-route-53e72ab6-d7a1-4517-824b-abdfb704d6b6--8297247457912691899-1-0.1" type="actor-car--4847507716475449556" depart="120.00" departLane="0" departPos="10.46" departSpeed="max" arrivalLane="0" arrivalPos="16.57">
        <route edges="gneE11 gneE13 gneE14 gneE15 -gneE12"/>
    </vehicle>
    <vehicle id="-flow-random-route-563fea25-381e-4eb0-935d-a99e16367542--8297247457912691899-7-0.1" type="actor-car--4847507716475449556" depart="120.00" departLane="0" departPos="102.33" departSpeed="max" arrivalLane="0" arrivalPos="23.88">
        <route edges="gneE14 gneE15 -gneE12 gneE11 gneE13 gneE14 gneE15 gneE8 gneE9 gneE2"/>
    </vehicle>
    <vehicle id="-flow-random-route-72bda561-8a0c-4741-b470-51399da03682--8297247457912691899-28-0.1" type="actor-car--4847507716475449556" depart="120.00" departLane="0" departPos="29.97" departSpeed="max" arrivalLane="0" arrivalPos="7.56">
        <route edges="gneE2 gneE11 gneE13 gneE14 gneE15"/>
    </vehicle>
    <vehicle id="-flow-random-route-7dc1eaf1-9fe2-40b8-b1fa-601b978f9d66--8297247457912691899-24-0.1" type="actor-car--4847507716475449556" depart="120.00" departLane="0" departPos="29.29" departSpeed="max" arrivalLane="0" arrivalPos="49.45">
        <route edges="gneE13 gneE14 gneE15 -gneE12 gneE11"/>
    </vehicle>
    <vehicle id="-flow-random-route-88cc9943-9c37-4882-a50d-c3afcc21d4de--8297247457912691899-0-0.1" type="actor-car--4847507716475449556" depart="120.00" departLane="0" departPos="31.59" departSpeed="max" arrivalLane="0" arrivalPos="42.51">
        <route edges="gneE15 -gneE12 gneE11 gneE13 gneE14"/>
    </vehicle>
    <vehicle id="-flow-random-route-914ff694-cd15-4e5b-affe-712d55a4800c--8297247457912691899-27-0.1" type="actor-car--4847507716475449556" depart="120.00" departLane="0" departPos="38.66" departSpeed="max" arrivalLane="1" arrivalPos="23.48">
        <route edges="gneE2 gneE12 gneE8"/>
    </vehicle>
    <vehicle id="-flow-random-route-95809090-5fba-4b93-8ace-a8118026e1d2--8297247457912691899-13-0.1" type="actor-car--4847507716475449556" depart="120.00" departLane="0" departPos="45.47" departSpeed="max" arrivalLane="0" arrivalPos="62.53">
        <route edges="gneE12 -gneE15 -gneE14 -gneE13 -gneE11 gneE12"/>
    </vehicle>
    <vehicle id="-flow-random-route-998137f5-ac9f-4b37-a694-c4a05c8e2d0a--8297247457912691899-10-0.1" type="actor-car--4847507716475449556" depart="120.00" departLane="0" departPos="22.44" departSpeed="max" arrivalLane="0" arrivalPos="114.48">
        <route edges="gneE12 gneE8 gneE9 gneE2 gneE12"/>
    </vehicle>
    <vehicle id="-flow-random-route-9fa6b4a2-52b5-4a5d-baef-d332e5c5a999--8297247457912691899-14-0.1" type="actor-car--4847507716475449556" depart="120.00" departLane="0" departPos="56.02" departSpeed="max" arrivalLane="1" arrivalPos="4.81">
        <route edges="gneE8 gneE9 gneE2"/>
    </vehicle>
    <vehicle id="-flow-random-route-a17e1b09-09a9-4e02-83ed-1cf386495439--8297247457912691899-23-0.1" type="actor-car--4847507716475449556" depart="120.00" departLane="0" departPos="25.52" departSpeed="max" arrivalLane="0" arrivalPos="32.84">
        <route edges="-gneE15 -gneE14 -gneE13 -gneE11 gneE12 gneE8"/>
    </vehicle>
    <vehicle id="-flow-random-route-a49628df-b83d-451b-9415-8c11d986d6a4--8297247457912691899-20-0.1" type="actor-car--4847507716475449556" depart="120.00" departLane="0" departPos="68.23" departSpeed="max" arrivalLane="0" arrivalPos="4.65">
        <route edges="gneE12 gneE8 gneE9"/>
    </vehicle>
    <vehicle id="-flow-random-route-ad7246fe-bd0c-48c2-a9cf-9dc9c22af88e--8297247457912691899-9-0.1" type="actor-car--4847507716475449556" depart="120.00" departLane="0" departPos="48.96" departSpeed="max" arrivalLane="1" arrivalPos="39.54">
        <route edges="-gneE14 -gneE13 -gneE11 gneE12 -gneE15 -gneE14 -gneE13 -gneE11 gneE12 gneE8"/>
    </vehicle>
    <vehicle id="-flow-random-route-b76bddd0-5866-4103-82d7-7742572b6769--8297247457912691899-2-0.1" type="actor-car--4847507716475449556" depart="120.00" departLane="0" departPos="63.68" departSpeed="max" arrivalLane="0" arrivalPos="19.34">
        <route edges="gneE14 gneE15 -gneE12 gneE11 gneE13"/>
    </vehicle>
    <vehicle id="-flow-random-route-b8332bfa-232d-4416-a1a9-cb219462a717--8297247457912691899-19-0.1" type="actor-car--4847507716475449556" depart="120.00" departLane="0" departPos="35.79" departSpeed="max" arrivalLane="0" arrivalPos="61.44">
        <route edges="-gneE15 -gneE14 -gneE13 -gneE11 gneE12"/>
    </vehicle>
    <vehicle id="-flow-random-route-b862518b-389d-49c3-a51a-b255f974115e--8297247457912691899-12-0.1" type="actor-car--4847507716475449556" depart="120.00" departLane="0" departPos="36.07" departSpeed="max" arrivalLane="0" arrivalPos="26.35">
        <route edges="gneE12 gneE8 gneE9 gneE2 gneE12"/>
    </vehicle>
    <vehicle id="-flow-random-route-bff6b1cb-df73-4a68-a03e-212fc7983b47--8297247457912691899-22-0.1" type="actor-car--4847507716475449556" depart="120.00" departLane="1" departPos="40.85" departSpeed="max" arrivalLane="0" arrivalPos="30.50">
        <route edges="gneE9 gneE2 gneE11"/>
    </vehicle>
    <vehicle id="-flow-random-route-c2c55a5f-9462-4fb2-a34f-b67ceda48955--8297247457912691899-8-0.1" type="actor-car--4847507716475449556" depart="120.00" departLane="0" departPos="88.28" departSpeed="max" arrivalLane="0" arrivalPos="85.30">
        <route edges="-gneE12 gneE11 gneE13"/>
    </vehicle>
    <vehicle id="-flow-random-route-c46e6551-d7db-4441-82f6-98b068a2703f--8297247457912691899-11-0.1" type="actor-car--4847507716475449556" depart="120.00" departLane="1" departPos="52.50" departSpeed="max" arrivalLane="0" arrivalPos="47.39">
        <route edges="gneE8 gneE9 gneE2 gneE12 gneE8 gneE9 gneE2 gneE11 gneE13 gneE14"/>
    </vehicle>
    <vehicle id="-flow-random-route-c8a333e2-668d-4983-8328-de97562a25ab--8297247457912691899-15-0.1" type="actor-car--4847507716475449556" depart="120.00" departLane="0" departPos="41.04" departSpeed="max" arrivalLane="1" arrivalPos="10.05">
        <route edges="-gneE13 -gneE11 gneE12 gneE8 gneE9 gneE2"/>
    </vehicle>
    <vehicle id="-flow-random-route-dc3c8554-8dd8-494d-8e55-afee00e7a73c--8297247457912691899-5-0.1" type="actor-car--4847507716475449556" depart="120.00" departLane="0" departPos="22.06" departSpeed="max" arrivalLane="0" arrivalPos="73.89">
        <route edges="-gneE14 -gneE13 -gneE11 gneE12 gneE8 gneE9 gneE2 gneE11 gneE13 gneE14"/>
    </vehicle>
    <vehicle id="-flow-random-route-e8d2976a-3e3f-40bc-96bf-ba823253c41f--8297247457912691899-4-0.1" type="actor-car--4847507716475449556" depart="120.00" departLane="0" departPos="2.57" departSpeed="max" arrivalLane="0" arrivalPos="93.48">
        <route edges="gneE14 gneE15 -gneE12 gneE11 gneE13"/>
    </vehicle>
    <vehicle id="-flow-random-route-f0f8c126-4f84-4057-a523-7d2935ae025e--8297247457912691899-16-0.1" type="actor-car--4847507716475449556" depart="120.00" departLane="0" departPos="41.26" departSpeed="max" arrivalLane="0" arrivalPos="18.03">
        <route edges="gneE2 gneE12 -gneE15 -gneE14 -gneE13"/>
    </vehicle>
    <vehicle id="-flow-random-route-fec9963c-ba16-4beb-800d-2529b309eb02--8297247457912691899-18-0.1" type="actor-car--4847507716475449556" depart="120.00" departLane="0" departPos="0.85" departSpeed="max" arrivalLane="0" arrivalPos="27.06">
        <route edges="gneE12 -gneE15 -gneE14 -gneE13 -gneE11 gneE12"/>
    </vehicle>
    <vehicle id="-flow-random-route-06142538-ed9c-42b2-b265-c1e937f3409b--8297247457912691899-21-0.2" type="actor-car--4847507716475449556" depart="240.00" departLane="0" departPos="103.85" departSpeed="max" arrivalLane="0" arrivalPos="11.20">
        <route edges="-gneE12 gneE11 gneE13 gneE14 gneE15"/>
    </vehicle>
    <vehicle id="-flow-random-route-09a6ef20-bbc7-462d-815b-e58609bee274--8297247457912691899-17-0.2" type="actor-car--4847507716475449556" depart="240.00" departLane="0" departPos="10.47" departSpeed="max" arrivalLane="0" arrivalPos="77.88">
        <route edges="-gneE11 gneE12 gneE8 gneE9 gneE2 gneE11 gneE13 gneE14 gneE15 -gneE12"/>
    </vehicle>
    <vehicle id="-flow-random-route-0a119481-10a1-42e4-9c74-bcf9aaf97a1c--8297247457912691899-6-0.2" type="actor-car--4847507716475449556" depart="240.00" departLane="0" departPos="97.81" departSpeed="max" arrivalLane="0" arrivalPos="75.07">
        <route edges="-gneE14 -gneE13 -gneE11 gneE12 gneE8 gneE9 gneE2 gneE11 gneE13 gneE14"/>
    </vehicle>
    <vehicle id="-flow-random-route-1d5202bb-5d86-49ea-ba37-fae1726d2d39--8297247457912691899-29-0.2" type="actor-car--4847507716475449556" depart="240.00" departLane="0" departPos="37.51" departSpeed="max" arrivalLane="0" arrivalPos="44.48">
        <route edges="gneE9 gneE2 gneE12 -gneE15 -gneE14 -gneE13 -gneE11 gneE12 gneE8 gneE9"/>
    </vehicle>
    <vehicle id="-flow-random-route-1e2b33d2-0240-47ae-aaae-91b966fd4783--8297247457912691899-25-0.2" type="actor-car--4847507716475449556" depart="240.00" departLane="0" departPos="77.55" departSpeed="max" arrivalLane="0" arrivalPos="39.51">
        <route edges="-gneE14 -gneE13 -gneE11 gneE12 -gneE15"/>
    </vehicle>
    <vehicle id="-flow-random-route-2faee46b-a993-4681-9db5-30e2430b8b98--8297247457912691899-3-0.2" type="actor-car--4847507716475449556" depart="240.00" departLane="0" departPos="36.42" departSpeed="max" arrivalLane="0" arrivalPos="20.79">
        <route edges="gneE15 -gneE12 gneE11 gneE13 gneE14 gneE15 gneE8 gneE9 gneE2 gneE12"/>
    </vehicle>
    <vehicle id="-flow-random-route-3833416e-3312-49a5-85ac-7cda161f52f9--8297247457912691899-26-0.2" type="actor-car--4847507716475449556" depart="240.00" departLane="0" departPos="6.12" departSpeed="max" arrivalLane="0" arrivalPos="54.03">
        <route edges="gneE15 -gneE12 gneE11 gneE13 gneE14 gneE15 gneE8 gneE9 gneE2 gneE12"/>
    </vehicle>
    <vehicle id="-flow-random-route-53e72ab6-d7a1-4517-824b-abdfb704d6b6--8297247457912691899-1-0.2" type="actor-car--4847507716475449556" depart="240.00" departLane="0" departPos="10.46" departSpeed="max" arrivalLane="0" arrivalPos="16.57">
        <route edges="gneE11 gneE13 gneE14 gneE15 -gneE12"/>
    </vehicle>
    <vehicle id="-flow-random-route-563fea25-381e-4eb0-935d-a99e16367542--8297247457912691899-7-0.2" type="actor-car--4847507716475449556" depart="240.00" departLane="0" departPos="102.33" departSpeed="max" arrivalLane="0" arrivalPos="23.88">
        <route edges="gneE14 gneE15 -gneE12 gneE11 gneE13 gneE14 gneE15 gneE8 gneE9 gneE2"/>
    </vehicle>
    <vehicle id="-flow-random-route-72bda561-8a0c-4741-b470-51399da03682--8297247457912691899-28-0.2" type="actor-car--4847507716475449556" depart="240.00" departLane="0" departPos="29.97" departSpeed="max" arrivalLane="0" arrivalPos="7.56">
        <route edges="gneE2 gneE11 gneE13 gneE14 gneE15"/>
    </vehicle>
    <vehicle id="-flow-random-route-7dc1eaf1-9fe2-40b8-b1fa-601b978f9d66--8297247457912691899-24-0.2" type="actor-car--4847507716475449556" depart="240.00" departLane="0" departPos="29.29" departSpeed="max" arrivalLane="0" arrivalPos="49.45">
        <route edges="gneE13 gneE14 gneE15 -gneE12 gneE11"/>
    </vehicle>
    <vehicle id="-flow-random-route-88cc9943-9c37-4882-a50d-c3afcc21d4de--8297247457912691899-0-0.2" type="actor-car--4847507716475449556" depart="240.00" departLane="0" departPos="31.59" departSpeed="max" arrivalLane="0" arrivalPos="42.51">
        <route edges="gneE15 -gneE12 gneE11 gneE13 gneE14"/>
    </vehicle>
    <vehicle id="-flow-random-route-914ff694-cd15-4e5b-affe-712d55a4800c--8297247457912691899-27-0.2" type="actor-car--4847507716475449556" depart="240.00" departLane="0" departPos="38.66" departSpeed="max" arrivalLane="1" arrivalPos="23.48">
        <route edges="gneE2 gneE12 gneE8"/>
    </vehicle>
    <vehicle id="-flow-random-route-95809090-5fba-4b93-8ace-a8118026e1d2--8297247457912691899-13-0.2" type="actor-car--4847507716475449556" depart="240.00" departLane="0" departPos="45.47" departSpeed="max" arrivalLane="0" arrivalPos="62.53">
        <route edges="gneE12 -gneE15 -gneE14 -gneE13 -gneE11 gneE12"/>
    </vehicle>
    <vehicle id="-flow-random-route-998137f5-ac9f-4b37-a694-c4a05c8e2d0a--8297247457912691899-10-0.2" type="actor-car--4847507716475449556" depart="240.00" departLane="0" departPos="22.44" departSpeed="max" arrivalLane="0" arrivalPos="114.48">
        <route edges="gneE12 gneE8 gneE9 gneE2 gneE12"/>
    </vehicle>
    <vehicle id="-flow-random-route-9fa6b4a2-52b5-4a5d-baef-d332e5c5a999--8297247457912691899-14-0.2" type="actor-car--4847507716475449556" depart="240.00" departLane="0" departPos="56.02" departSpeed="max" arrivalLane="1" arrivalPos="4.81">
        <route edges="gneE8 gneE9 gneE2"/>
    </vehicle>
    <vehicle id="-flow-random-route-a17e1b09-09a9-4e02-83ed-1cf386495439--8297247457912691899-23-0.2" type="actor-car--4847507716475449556" depart="240.00" departLane="0" departPos="25.52" departSpeed="max" arrivalLane="0" arrivalPos="32.84">
        <route edges="-gneE15 -gneE14 -gneE13 -gneE11 gneE12 gneE8"/>
    </vehicle>
    <vehicle id="-flow-random-route-a49628df-b83d-451b-9415-8c11d986d6a4--8297247457912691899-20-0.2" type="actor-car--4847507716475449556" depart="240.00" departLane="0" departPos="68.23" departSpeed="max" arrivalLane="0" arrivalPos="4.65">
        <route edges="gneE12 gneE8 gneE9"/>
    </vehicle>
    <vehicle id="-flow-random-route-ad7246fe-bd0c-48c2-a9cf-9dc9c22af88e--8297247457912691899-9-0.2" type="actor-car--4847507716475449556" depart="240.00" departLane="0" departPos="48.96" departSpeed="max" arrivalLane="1" arrivalPos="39.54">
        <route edges="-gneE14 -gneE13 -gneE11 gneE12 -gneE15 -gneE14 -gneE13 -gneE11 gneE12 gneE8"/>
    </vehicle>
    <vehicle id="-flow-random-route-b76bddd0-5866-4103-82d7-7742572b6769--8297247457912691899-2-0.2" type="actor-car--4847507716475449556" depart="240.00" departLane="0" departPos="63.68" departSpeed="max" arrivalLane="0" arrivalPos="19.34">
        <route edges="gneE14 gneE15 -gneE12 gneE11 gneE13"/>
    </vehicle>
    <vehicle id="-flow-random-route-b8332bfa-232d-4416-a1a9-cb219462a717--8297247457912691899-19-0.2" type="actor-car--4847507716475449556" depart="240.00" departLane="0" departPos="35.79" departSpeed="max" arrivalLane="0" arrivalPos="61.44">
        <route edges="-gneE15 -gneE14 -gneE13 -gneE11 gneE12"/>
    </vehicle>
    <vehicle id="-flow-random-route-b862518b-389d-49c3-a51a-b255f974115e--8297247457912691899-12-0.2" type="actor-car--4847507716475449556" depart="240.00" departLane="0" departPos="36.07" departSpeed="max" arrivalLane="0" arrivalPos="26.35">
        <route edges="gneE12 gneE8 gneE9 gneE2 gneE12"/>
    </vehicle>
    <vehicle id="-flow-random-route-bff6b1cb-df73-4a68-a03e-212fc7983b47--8297247457912691899-22-0.2" type="actor-car--4847507716475449556" depart="240.00" departLane="1" departPos="40.85" departSpeed="max" arrivalLane="0" arrivalPos="30.50">
        <route edges="gneE9 gneE2 gneE11"/>
    </vehicle>
    <vehicle id="-flow-random-route-c2c55a5f-9462-4fb2-a34f-b67ceda48955--8297247457912691899-8-0.2" type="actor-car--4847507716475449556" depart="240.00" departLane="0" departPos="88.28" departSpeed="max" arrivalLane="0" arrivalPos="85.30">
        <route edges="-gneE12 gneE11 gneE13"/>
    </vehicle>
    <vehicle id="-flow-random-route-c46e6551-d7db-4441-82f6-98b068a2703f--8297247457912691899-11-0.2" type="actor-car--4847507716475449556" depart="240.00" departLane="1" departPos="52.50" departSpeed="max" arrivalLane="0" arrivalPos="47.39">
        <route edges="gneE8 gneE9 gneE2 gneE12 gneE8 gneE9 gneE2 gneE11 gneE13 gneE14"/>
    </vehicle>
    <vehicle id="-flow-random-route-c8a333e2-668d-4983-8328-de97562a25ab--8297247457912691899-15-0.2" type="actor-car--4847507716475449556" depart="240.00" departLane="0" departPos="41.04" departSpeed="max" arrivalLane="1" arrivalPos="10.05">
        <route edges="-gneE13 -gneE11 gneE12 gneE8 gneE9 gneE2"/>
    </vehicle>
    <vehicle id="-flow-random-route-dc3c8554-8dd8-494d-8e55-afee00e7a73c--8297247457912691899-5-0.2" type="actor-car--4847507716475449556" depart="240.00" departLane="0" departPos="22.06" departSpeed="max" arrivalLane="0" arrivalPos="73.89">
        <route edges="-gneE14 -gneE13 -gneE11 gneE12 gneE8 gneE9 gneE2 gneE11 gneE13 gneE14"/>
    </vehicle>