<?xml version="1.0" encoding="UTF-8"?>

<!-- generated on Sun Aug 30 13:07:48 2020 by Eclipse SUMO duarouter Version 1.6.0
<configuration xmlns:xsi="http://www.w3.org/2001/XMLSchema-instance" xsi:noNamespaceSchemaLocation="http://sumo.dlr.de/xsd/duarouterConfiguration.xsd">

    <input>
        <net-file value="../dataset_public/roundabout_loop/roundabout_a/map.net.xml"/>
        <route-files value="/tmp/tmpotmdr7i2/trips.trips.xml"/>
    </input>

    <output>
        <output-file value="../dataset_public/roundabout_loop/roundabout_a/traffic/30_patient_car.rou.xml"/>
        <alternatives-output value="../dataset_public/roundabout_loop/roundabout_a/traffic/30_patient_car.rou.alt.xml"/>
    </output>

    <processing>
        <unsorted-input value="true"/>
        <repair value="true"/>
    </processing>

    <report>
        <error-log value="/tmp/smarts/_duarouter_routing/traffic/30_patient_car.log"/>
        <no-step-log value="true"/>
    </report>

    <random_number>
        <seed value="42"/>
    </random_number>

</configuration>
-->

<routes xmlns:xsi="http://www.w3.org/2001/XMLSchema-instance" xsi:noNamespaceSchemaLocation="http://sumo.dlr.de/xsd/routes_file.xsd">
    <vType id="actor-car--2001210773893207408" minGap="2.50" speedFactor="normc(0.50,0.20,0.20,2.00)" vClass="passenger" impatience="0.50" lcCooperative="0.5" lcImpatience="0" jmDriveAfterYellowTime="1.0" accel="2.6" decel="4.5" sigma="0.5"/>
    <vehicle id="-flow-random-route-03687816-1a53-4501-a10e-8fc68eaa5867--2268233105098763512-24-0.0" type="actor-car--2001210773893207408" depart="0.00" departLane="1" departPos="12.16" departSpeed="max" arrivalLane="0" arrivalPos="77.64">
        <route edges="gneE51 -gneE48 -gneE37"/>
    </vehicle>
    <vehicle id="-flow-random-route-0b778129-d2b9-447c-b19d-9273c17d8603--2268233105098763512-3-0.0" type="actor-car--2001210773893207408" depart="0.00" departLane="0" departPos="80.70" departSpeed="max" arrivalLane="0" arrivalPos="0.18">
        <route edges="-gneE37 -gneE36 edge-north-NW edge-west-WS edge-south-SE edge-east-EN edge-north-NW gneE41 gneE42 gneE51"/>
    </vehicle>
    <vehicle id="-flow-random-route-20424533-1f44-48b7-9be5-8e6bafab6558--2268233105098763512-28-0.0" type="actor-car--2001210773893207408" depart="0.00" departLane="1" departPos="17.76" departSpeed="max" arrivalLane="0" arrivalPos="95.19">
        <route edges="gneE13 edge-south-SE edge-east-EN edge-north-NW edge-west-WS edge-south-SE edge-east-EN gneE36 gneE37 gneE48"/>
    </vehicle>
    <vehicle id="-flow-random-route-2479ff57-fc42-4ce3-a186-00ec74d32dca--2268233105098763512-15-0.0" type="actor-car--2001210773893207408" depart="0.00" departLane="1" departPos="55.00" departSpeed="max" arrivalLane="1" arrivalPos="40.41">
        <route edges="edge-east-EN gneE36 gneE37 gneE48 gneE53 gneE14 gneE13 edge-south-SE edge-east-EN edge-north-NW"/>
    </vehicle>
    <vehicle id="-flow-random-route-26bee547-7407-483d-9e0d-512a4a71afc0--2268233105098763512-21-0.0" type="actor-car--2001210773893207408" depart="0.00" departLane="0" departPos="6.16" departSpeed="max" arrivalLane="1" arrivalPos="53.83">
        <route edges="edge-south-SE edge-east-EN"/>
    </vehicle>
    <vehicle id="-flow-random-route-2719e981-797f-4e67-ab6c-f915020e3e2f--2268233105098763512-22-0.0" type="actor-car--2001210773893207408" depart="0.00" departLane="0" departPos="5.17" departSpeed="max" arrivalLane="1" arrivalPos="18.89">
        <route edges="-gneE36 edge-north-NW gneE41 gneE42 gneE51 -gneE48 -gneE37 -gneE36 edge-north-NW edge-west-WS"/>
    </vehicle>
    <vehicle id="-flow-random-route-2cd76581-f5ab-49c4-a577-500f1e1b9de3--2268233105098763512-18-0.0" type="actor-car--2001210773893207408" depart="0.00" departLane="0" departPos="8.62" departSpeed="max" arrivalLane="1" arrivalPos="65.00">
        <route edges="gneE41 gneE42 gneE51 -gneE48 -gneE37 -gneE36 edge-north-NW edge-west-WS edge-south-SE edge-east-EN"/>
    </vehicle>
    <vehicle id="-flow-random-route-2fe381cc-fec3-4cd6-adc9-6b6100119c0a--2268233105098763512-20-0.0" type="actor-car--2001210773893207408" depart="0.00" departLane="0" departPos="166.20" departSpeed="max" arrivalLane="0" arrivalPos="38.25">
        <route edges="-gneE37 -gneE36 edge-north-NW"/>
    </vehicle>
    <vehicle id="-flow-random-route-3293d895-f757-4cf4-8378-24ae04cd9469--2268233105098763512-14-0.0" type="actor-car--2001210773893207408" depart="0.00" departLane="0" departPos="40.61" departSpeed="max" arrivalLane="1" arrivalPos="26.83">
        <route edges="edge-east-EN edge-north-NW"/>
    </vehicle>
    <vehicle id="-flow-random-route-330cda31-80aa-43bf-a898-19a48e69d2a7--2268233105098763512-13-0.0" type="actor-car--2001210773893207408" depart="0.00" departLane="0" departPos="16.73" departSpeed="max" arrivalLane="0" arrivalPos="13.09">
        <route edges="-gneE36 edge-north-NW edge-west-WS edge-south-SE edge-east-EN edge-north-NW edge-west-WS edge-south-SE edge-east-EN gneE36"/>
    </vehicle>
    <vehicle id="-flow-random-route-37a1e733-dc00-4040-a711-6307d9c6cfde--2268233105098763512-17-0.0" type="actor-car--2001210773893207408" depart="0.00" departLane="1" departPos="59.44" departSpeed="max" arrivalLane="1" arrivalPos="8.71">
        <route edges="edge-north-NW gneE41 gneE42 gneE51 -gneE48 -gneE37 -gneE36 edge-north-NW edge-west-WS edge-south-SE"/>
    </vehicle>
    <vehicle id="-flow-random-route-430e1e52-33cb-4f7d-89f2-7276ebe61baa--2268233105098763512-19-0.0" type="actor-car--2001210773893207408" depart="0.00" departLane="0" departPos="65.67" departSpeed="max" arrivalLane="0" arrivalPos="53.11">
        <route edges="gneE37 gneE48"/>
    </vehicle>
    <vehicle id="-flow-random-route-463a00c2-3a76-4740-96f5-6d86bd97a8f9--2268233105098763512-27-0.0" type="actor-car--2001210773893207408" depart="0.00" departLane="0" departPos="82.61" departSpeed="max" arrivalLane="0" arrivalPos="74.88">
        <route edges="gneE37 gneE48"/>
    </vehicle>
    <vehicle id="-flow-random-route-47e5a16b-3c82-40f5-aa31-94a43b0e9ec6--2268233105098763512-5-0.0" type="actor-car--2001210773893207408" depart="0.00" departLane="0" departPos="43.54" departSpeed="max" arrivalLane="1" arrivalPos="4.28">
        <route edges="edge-east-EN edge-north-NW gneE41"/>
    </vehicle>
    <vehicle id="-flow-random-route-4ac627a4-6967-44e9-8d0d-c041ff77440a--2268233105098763512-29-0.0" type="actor-car--2001210773893207408" depart="0.00" departLane="0" departPos="59.30" departSpeed="max" arrivalLane="0" arrivalPos="45.06">
        <route edges="edge-east-EN gneE36 gneE37 gneE48 gneE53 gneE14 gneE13 edge-south-SE edge-east-EN edge-north-NW"/>
    </vehicle>
    <vehicle id="-flow-random-route-5727f206-1cc0-48c7-a27f-55e1e3965946--2268233105098763512-6-0.0" type="actor-car--2001210773893207408" depart="0.00" departLane="1" departPos="53.49" departSpeed="max" arrivalLane="0" arrivalPos="99.01">
        <route edges="gneE14 gneE13 edge-south-SE edge-east-EN edge-north-NW gneE41 gneE42 gneE51 -gneE48 -gneE37"/>
    </vehicle>
    <vehicle id="-flow-random-route-5b510413-81ab-4b39-8c17-bca114713728--2268233105098763512-25-0.0" type="actor-car--2001210773893207408" depart="0.00" departLane="0" departPos="70.18" departSpeed="max" arrivalLane="0" arrivalPos="17.32">
        <route edges="-gneE48 -gneE37 -gneE36"/>
    </vehicle>
    <vehicle id="-flow-random-route-603b16b5-361b-4c3b-b785-a6ae99d45e4f--2268233105098763512-23-0.0" type="actor-car--2001210773893207408" depart="0.00" departLane="0" departPos="40.41" departSpeed="max" arrivalLane="0" arrivalPos="38.44">
        <route edges="gneE13 edge-south-SE"/>
    </vehicle>
    <vehicle id="-flow-random-route-6123027b-177b-4abb-a8a8-7817ea4be411--2268233105098763512-0-0.0" type="actor-car--2001210773893207408" depart="0.00" departLane="1" departPos="81.61" departSpeed="max" arrivalLane="0" arrivalPos="26.98">
        <route edges="gneE14 gneE13 edge-south-SE edge-east-EN edge-north-NW gneE41 gneE42 gneE51 -gneE48 -gneE37"/>
    </vehicle>
    <vehicle id="-flow-random-route-66208df2-0f63-4322-ab1e-ddd7a38fa710--2268233105098763512-11-0.0" type="actor-car--2001210773893207408" depart="0.00" departLane="0" departPos="89.20" departSpeed="max" arrivalLane="0" arrivalPos="4.18">
        <route edges="-gneE48 -gneE37 -gneE36"/>
    </vehicle>
    <vehicle id="-flow-random-route-79ccb97a-1e28-4f27-96cd-b5b1aafc3b84--2268233105098763512-12-0.0" type="actor-car--2001210773893207408" depart="0.00" departLane="0" departPos="50.79" departSpeed="max" arrivalLane="0" arrivalPos="47.09">
        <route edges="gneE42 gneE51 -gneE48"/>
    </vehicle>
    <vehicle id="-flow-random-route-7cccfa34-028c-4ced-8bce-e483f5c078b3--2268233105098763512-7-0.0" type="actor-car--2001210773893207408" depart="0.00" departLane="0" departPos="32.39" departSpeed="max" arrivalLane="1" arrivalPos="6.29">
        <route edges="-gneE37 -gneE36 edge-north-NW edge-west-WS edge-south-SE edge-east-EN gneE36 gneE37 gneE48 gneE53"/>
    </vehicle>
    <vehicle id="-flow-random-route-7de48d6b-d70c-4bf8-aaf3-63d7e6db1ab5--2268233105098763512-10-0.0" type="actor-car--2001210773893207408" depart="0.00" departLane="0" departPos="10.65" departSpeed="max" arrivalLane="1" arrivalPos="6.38">
        <route edges="gneE48 gneE53 gneE14 gneE13 edge-south-SE edge-east-EN"/>
    </vehicle>
    <vehicle id="-flow-random-route-8bae9b2d-0447-4dbf-b82b-72a636a8daac--2268233105098763512-4-0.0" type="actor-car--2001210773893207408" depart="0.00" departLane="1" departPos="34.35" departSpeed="max" arrivalLane="0" arrivalPos="82.43">
        <route edges="gneE14 gneE13 edge-south-SE edge-east-EN edge-north-NW gneE41 gneE42 gneE51 -gneE48 -gneE37"/>
    </vehicle>
    <vehicle id="-flow-random-route-8d3f44dd-d82d-4a72-b68c-0f323b20c24c--2268233105098763512-26-0.0" type="actor-car--2001210773893207408" depart="0.00" departLane="0" departPos="12.69" departSpeed="max" arrivalLane="1" arrivalPos="56.78">
        <route edges="gneE37 gneE48 gneE53 gneE14 gneE13 edge-south-SE edge-east-EN edge-north-NW gneE41 gneE42"/>
    </vehicle>
    <vehicle id="-flow-random-route-ad75c6d5-5083-413a-b2ac-176577a1d96b--2268233105098763512-2-0.0" type="actor-car--2001210773893207408" depart="0.00" departLane="0" departPos="61.54" departSpeed="max" arrivalLane="1" arrivalPos="66.39">
        <route edges="-gneE48 -gneE37 -gneE36 edge-north-NW edge-west-WS edge-south-SE edge-east-EN edge-north-NW gneE41 gneE42"/>
    </vehicle>
    <vehicle id="-flow-random-route-bf997b44-ebfc-4951-ad8e-4e5ffd61d1be--2268233105098763512-9-0.0" type="actor-car--2001210773893207408" depart="0.00" departLane="0" departPos="49.00" departSpeed="max" arrivalLane="0" arrivalPos="37.23">
        <route edges="gneE14 gneE13"/>
    </vehicle>
    <vehicle id="-flow-random-route-c911d062-3506-42ae-af5a-a5e5cd8f9d7f--2268233105098763512-8-0.0" type="actor-car--2001210773893207408" depart="0.00" departLane="1" departPos="52.92" departSpeed="max" arrivalLane="0" arrivalPos="25.87">
        <route edges="edge-east-EN edge-north-NW edge-west-WS edge-south-SE edge-east-EN gneE36 gneE37 gneE48 gneE53 gneE14"/>
    </vehicle>
    <vehicle id="-flow-random-route-cb455b1f-4f11-44ff-abbc-e1f3f19a0057--2268233105098763512-1-0.0" type="actor-car--2001210773893207408" depart="0.00" departLane="0" departPos="14.71" departSpeed="max" arrivalLane="0" arrivalPos="49.42">
        <route edges="-gneE36 edge-north-NW"/>
    </vehicle>
    <vehicle id="-flow-random-route-f0205094-18fa-4c45-b9d9-57a8b0147ff7--2268233105098763512-16-0.0" type="actor-car--2001210773893207408" depart="0.00" departLane="0" departPos="57.03" departSpeed="max" arrivalLane="0" arrivalPos="37.00">
        <route edges="gneE13 edge-south-SE"/>
    </vehicle>
    <vehicle id="-flow-random-route-03687816-1a53-4501-a10e-8fc68eaa5867--2268233105098763512-24-0.1" type="actor-car--2001210773893207408" depart="120.00" departLane="1" departPos="12.16" departSpeed="max" arrivalLane="0" arrivalPos="77.64">
        <route edges="gneE51 -gneE48 -gneE37"/>
    </vehicle>
    <vehicle id="-flow-random-route-0b778129-d2b9-447c-b19d-9273c17d8603--2268233105098763512-3-0.1" type="actor-car--2001210773893207408" depart="120.00" departLane="0" departPos="80.70" departSpeed="max" arrivalLane="0" arrivalPos="0.18">
        <route edges="-gneE37 -gneE36 edge-north-NW edge-west-WS edge-south-SE edge-east-EN edge-north-NW gneE41 gneE42 gneE51"/>
    </vehicle>
    <vehicle id="-flow-random-route-20424533-1f44-48b7-9be5-8e6bafab6558--2268233105098763512-28-0.1" type="actor-car--2001210773893207408" depart="120.00" departLane="1" departPos="17.76" departSpeed="max" arrivalLane="0" arrivalPos="95.19">
        <route edges="gneE13 edge-south-SE edge-east-EN edge-north-NW edge-west-WS edge-south-SE edge-east-EN gneE36 gneE37 gneE48"/>
    </vehicle>
    <vehicle id="-flow-random-route-2479ff57-fc42-4ce3-a186-00ec74d32dca--2268233105098763512-15-0.1" type="actor-car--2001210773893207408" depart="120.00" departLane="1" departPos="55.00" departSpeed="max" arrivalLane="1" arrivalPos="40.41">
        <route edges="edge-east-EN gneE36 gneE37 gneE48 gneE53 gneE14 gneE13 edge-south-SE edge-east-EN edge-north-NW"/>
    </vehicle>
    <vehicle id="-flow-random-route-26bee547-7407-483d-9e0d-512a4a71afc0--2268233105098763512-21-0.1" type="actor-car--2001210773893207408" depart="120.00" departLane="0" departPos="6.16" departSpeed="max" arrivalLane="1" arrivalPos="53.83">
        <route edges="edge-south-SE edge-east-EN"/>
    </vehicle>
    <vehicle id="-flow-random-route-2719e981-797f-4e67-ab6c-f915020e3e2f--2268233105098763512-22-0.1" type="actor-car--2001210773893207408" depart="120.00" departLane="0" departPos="5.17" departSpeed="max" arrivalLane="1" arrivalPos="18.89">
        <route edges="-gneE36 edge-north-NW gneE41 gneE42 gneE51 -gneE48 -gneE37 -gneE36 edge-north-NW edge-west-WS"/>
    </vehicle>
    <vehicle id="-flow-random-route-2cd76581-f5ab-49c4-a577-500f1e1b9de3--2268233105098763512-18-0.1" type="actor-car--2001210773893207408" depart="120.00" departLane="0" departPos="8.62" departSpeed="max" arrivalLane="1" arrivalPos="65.00">
        <route edges="gneE41 gneE42 gneE51 -gneE48 -gneE37 -gneE36 edge-north-NW edge-west-WS edge-south-SE edge-east-EN"/>
    </vehicle>
    <vehicle id="-flow-random-route-2fe381cc-fec3-4cd6-adc9-6b6100119c0a--2268233105098763512-20-0.1" type="actor-car--2001210773893207408" depart="120.00" departLane="0" departPos="166.20" departSpeed="max" arrivalLane="0" arrivalPos="38.25">
        <route edges="-gneE37 -gneE36 edge-north-NW"/>
    </vehicle>
    <vehicle id="-flow-random-route-3293d895-f757-4cf4-8378-24ae04cd9469--2268233105098763512-14-0.1" type="actor-car--2001210773893207408" depart="120.00" departLane="0" departPos="40.61" departSpeed="max" arrivalLane="1" arrivalPos="26.83">
        <route edges="edge-east-EN edge-north-NW"/>
    </vehicle>
    <vehicle id="-flow-random-route-330cda31-80aa-43bf-a898-19a48e69d2a7--2268233105098763512-13-0.1" type="actor-car--2001210773893207408" depart="120.00" departLane="0" departPos="16.73" departSpeed="max" arrivalLane="0" arrivalPos="13.09">
        <route edges="-gneE36 edge-north-NW edge-west-WS edge-south-SE edge-east-EN edge-north-NW edge-west-WS edge-south-SE edge-east-EN gneE36"/>
    </vehicle>
    <vehicle id="-flow-random-route-37a1e733-dc00-4040-a711-6307d9c6cfde--2268233105098763512-17-0.1" type="actor-car--2001210773893207408" depart="120.00" departLane="1" departPos="59.44" departSpeed="max" arrivalLane="1" arrivalPos="8.71">
        <route edges="edge-north-NW gneE41 gneE42 gneE51 -gneE48 -gneE37 -gneE36 edge-north-NW edge-west-WS edge-south-SE"/>
    </vehicle>
    <vehicle id="-flow-random-route-430e1e52-33cb-4f7d-89f2-7276ebe61baa--2268233105098763512-19-0.1" type="actor-car--2001210773893207408" depart="120.00" departLane="0" departPos="65.67" departSpeed="max" arrivalLane="0" arrivalPos="53.11">
        <route edges="gneE37 gneE48"/>
    </vehicle>
    <vehicle id="-flow-random-route-463a00c2-3a76-4740-96f5-6d86bd97a8f9--2268233105098763512-27-0.1" type="actor-car--2001210773893207408" depart="120.00" departLane="0" departPos="82.61" departSpeed="max" arrivalLane="0" arrivalPos="74.88">
        <route edges="gneE37 gneE48"/>
    </vehicle>
    <vehicle id="-flow-random-route-47e5a16b-3c82-40f5-aa31-94a43b0e9ec6--2268233105098763512-5-0.1" type="actor-car--2001210773893207408" depart="120.00" departLane="0" departPos="43.54" departSpeed="max" arrivalLane="1" arrivalPos="4.28">
        <route edges="edge-east-EN edge-north-NW gneE41"/>
    </vehicle>
    <vehicle id="-flow-random-route-4ac627a4-6967-44e9-8d0d-c041ff77440a--2268233105098763512-29-0.1" type="actor-car--2001210773893207408" depart="120.00" departLane="0" departPos="59.30" departSpeed="max" arrivalLane="0" arrivalPos="45.06">
        <route edges="edge-east-EN gneE36 gneE37 gneE48 gneE53 gneE14 gneE13 edge-south-SE edge-east-EN edge-north-NW"/>
    </vehicle>
    <vehicle id="-flow-random-route-5727f206-1cc0-48c7-a27f-55e1e3965946--2268233105098763512-6-0.1" type="actor-car--2001210773893207408" depart="120.00" departLane="1" departPos="53.49" departSpeed="max" arrivalLane="0" arrivalPos="99.01">
        <route edges="gneE14 gneE13 edge-south-SE edge-east-EN edge-north-NW gneE41 gneE42 gneE51 -gneE48 -gneE37"/>
    </vehicle>
    <vehicle id="-flow-random-route-5b510413-81ab-4b39-8c17-bca114713728--2268233105098763512-25-0.1" type="actor-car--2001210773893207408" depart="120.00" departLane="0" departPos="70.18" departSpeed="max" arrivalLane="0" arrivalPos="17.32">
        <route edges="-gneE48 -gneE37 -gneE36"/>
    </vehicle>
    <vehicle id="-flow-random-route-603b16b5-361b-4c3b-b785-a6ae99d45e4f--2268233105098763512-23-0.1" type="actor-car--2001210773893207408" depart="120.00" departLane="0" departPos="40.41" departSpeed="max" arrivalLane="0" arrivalPos="38.44">
        <route edges="gneE13 edge-south-SE"/>
    </vehicle>
    <vehicle id="-flow-random-route-6123027b-177b-4abb-a8a8-7817ea4be411--2268233105098763512-0-0.1" type="actor-car--2001210773893207408" depart="120.00" departLane="1" departPos="81.61" departSpeed="max" arrivalLane="0" arrivalPos="26.98">
        <route edges="gneE14 gneE13 edge-south-SE edge-east-EN edge-north-NW gneE41 gneE42 gneE51 -gneE48 -gneE37"/>
    </vehicle>
    <vehicle id="-flow-random-route-66208df2-0f63-4322-ab1e-ddd7a38fa710--2268233105098763512-11-0.1" type="actor-car--2001210773893207408" depart="120.00" departLane="0" departPos="89.20" departSpeed="max" arrivalLane="0" arrivalPos="4.18">
        <route edges="-gneE48 -gneE37 -gneE36"/>
    </vehicle>
    <vehicle id="-flow-random-route-79ccb97a-1e28-4f27-96cd-b5b1aafc3b84--2268233105098763512-12-0.1" type="actor-car--2001210773893207408" depart="120.00" departLane="0" departPos="50.79" departSpeed="max" arrivalLane="0" arrivalPos="47.09">
        <route edges="gneE42 gneE51 -gneE48"/>
    </vehicle>
    <vehicle id="-flow-random-route-7cccfa34-028c-4ced-8bce-e483f5c078b3--2268233105098763512-7-0.1" type="actor-car--2001210773893207408" depart="120.00" departLane="0" departPos="32.39" departSpeed="max" arrivalLane="1" arrivalPos="6.29">
        <route edges="-gneE37 -gneE36 edge-north-NW edge-west-WS edge-south-SE edge-east-EN gneE36 gneE37 gneE48 gneE53"/>
    </vehicle>
    <vehicle id="-flow-random-route-7de48d6b-d70c-4bf8-aaf3-63d7e6db1ab5--2268233105098763512-10-0.1" type="actor-car--2001210773893207408" depart="120.00" departLane="0" departPos="10.65" departSpeed="max" arrivalLane="1" arrivalPos="6.38">
        <route edges="gneE48 gneE53 gneE14 gneE13 edge-south-SE edge-east-EN"/>
    </vehicle>
    <vehicle id="-flow-random-route-8bae9b2d-0447-4dbf-b82b-72a636a8daac--2268233105098763512-4-0.1" type="actor-car--2001210773893207408" depart="120.00" departLane="1" departPos="34.35" departSpeed="max" arrivalLane="0" arrivalPos="82.43">
        <route edges="gneE14 gneE13 edge-south-SE edge-east-EN edge-north-NW gneE41 gneE42 gneE51 -gneE48 -gneE37"/>
    </vehicle>
    <vehicle id="-flow-random-route-8d3f44dd-d82d-4a72-b68c-0f323b20c24c--2268233105098763512-26-0.1" type="actor-car--2001210773893207408" depart="120.00" departLane="0" departPos="12.69" departSpeed="max" arrivalLane="1" arrivalPos="56.78">
        <route edges="gneE37 gneE48 gneE53 gneE14 gneE13 edge-south-SE edge-east-EN edge-north-NW gneE41 gneE42"/>
    </vehicle>
    <vehicle id="-flow-random-route-ad75c6d5-5083-413a-b2ac-176577a1d96b--2268233105098763512-2-0.1" type="actor-car--2001210773893207408" depart="120.00" departLane="0" departPos="61.54" departSpeed="max" arrivalLane="1" arrivalPos="66.39">
        <route edges="-gneE48 -gneE37 -gneE36 edge-north-NW edge-west-WS edge-south-SE edge-east-EN edge-north-NW gneE41 gneE42"/>
    </vehicle>
    <vehicle id="-flow-random-route-bf997b44-ebfc-4951-ad8e-4e5ffd61d1be--2268233105098763512-9-0.1" type="actor-car--2001210773893207408" depart="120.00" departLane="0" departPos="49.00" departSpeed="max" arrivalLane="0" arrivalPos="37.23">
        <route edges="gneE14 gneE13"/>
    </vehicle>
    <vehicle id="-flow-random-route-c911d062-3506-42ae-af5a-a5e5cd8f9d7f--2268233105098763512-8-0.1" type="actor-car--2001210773893207408" depart="120.00" departLane="1" departPos="52.92" departSpeed="max" arrivalLane="0" arrivalPos="25.87">
        <route edges="edge-east-EN edge-north-NW edge-west-WS edge-south-SE edge-east-EN gneE36 gneE37 gneE48 gneE53 gneE14"/>
    </vehicle>
    <vehicle id="-flow-random-route-cb455b1f-4f11-44ff-abbc-e1f3f19a0057--2268233105098763512-1-0.1" type="actor-car--2001210773893207408" depart="120.00" departLane="0" departPos="14.71" departSpeed="max" arrivalLane="0" arrivalPos="49.42">
        <route edges="-gneE36 edge-north-NW"/>
    </vehicle>
    <vehicle id="-flow-random-route-f0205094-18fa-4c45-b9d9-57a8b0147ff7--2268233105098763512-16-0.1" type="actor-car--2001210773893207408" depart="120.00" departLane="0" departPos="57.03" departSpeed="max" arrivalLane="0" arrivalPos="37.00">
        <route edges="gneE13 edge-south-SE"/>
    </vehicle>
    <vehicle id="-flow-random-route-03687816-1a53-4501-a10e-8fc68eaa5867--2268233105098763512-24-0.2" type="actor-car--2001210773893207408" depart="240.00" departLane="1" departPos="12.16" departSpeed="max" arrivalLane="0" arrivalPos="77.64">
        <route edges="gneE51 -gneE48 -gneE37"/>
    </vehicle>
    <vehicle id="-flow-random-route-0b778129-d2b9-447c-b19d-9273c17d8603--2268233105098763512-3-0.2" type="actor-car--2001210773893207408" depart="240.00" departLane="0" departPos="80.70" departSpeed="max" arrivalLane="0" arrivalPos="0.18">
        <route edges="-gneE37 -gneE36 edge-north-NW edge-west-WS edge-south-SE edge-east-EN edge-north-NW gneE41 gneE42 gneE51"/>
    </vehicle>
    <vehicle id="-flow-random-route-20424533-1f44-48b7-9be5-8e6bafab6558--2268233105098763512-28-0.2" type="actor-car--2001210773893207408" depart="240.00" departLane="1" departPos="17.76" departSpeed="max" arrivalLane="0" arrivalPos="95.19">
        <route edges="gneE13 edge-south-SE edge-east-EN edge-north-NW edge-west-WS edge-south-SE edge-east-EN gneE36 gneE37 gneE48"/>
    </vehicle>
    <vehicle id="-flow-random-route-2479ff57-fc42-4ce3-a186-00ec74d32dca--2268233105098763512-15-0.2" type="actor-car--2001210773893207408" depart="240.00" departLane="1" departPos="55.00" departSpeed="max" arrivalLane="1" arrivalPos="40.41">
        <route edges="edge-east-EN gneE36 gneE37 gneE48 gneE53 gneE14 gneE13 edge-south-SE edge-east-EN edge-north-NW"/>
    </vehicle>
    <vehicle id="-flow-random-route-26bee547-7407-483d-9e0d-512a4a71afc0--2268233105098763512-21-0.2" type="actor-car--2001210773893207408" depart="240.00" departLane="0" departPos="6.16" departSpeed="max" arrivalLane="1" arrivalPos="53.83">
        <route edges="edge-south-SE edge-east-EN"/>
    </vehicle>
    <vehicle id="-flow-random-route-2719e981-797f-4e67-ab6c-f915020e3e2f--2268233105098763512-22-0.2" type="actor-car--2001210773893207408" depart="240.00" departLane="0" departPos="5.17" departSpeed="max" arrivalLane="1" arrivalPos="18.89">
        <route edges="-gneE36 edge-north-NW gneE41 gneE42 gneE51 -gneE48 -gneE37 -gneE36 edge-north-NW edge-west-WS"/>
    </vehicle>
    <vehicle id="-flow-random-route-2cd76581-f5ab-49c4-a577-500f1e1b9de3--2268233105098763512-18-0.2" type="actor-car--2001210773893207408" depart="240.00" departLane="0" departPos="8.62" departSpeed="max" arrivalLane="1" arrivalPos="65.00">
        <route edges="gneE41 gneE42 gneE51 -gneE48 -gneE37 -gneE36 edge-north-NW edge-west-WS edge-south-SE edge-east-EN"/>
    </vehicle>
    <vehicle id="-flow-random-route-2fe381cc-fec3-4cd6-adc9-6b6100119c0a--2268233105098763512-20-0.2" type="actor-car--2001210773893207408" depart="240.00" departLane="0" departPos="166.20" departSpeed="max" arrivalLane="0" arrivalPos="38.25">
        <route edges="-gneE37 -gneE36 edge-north-NW"/>
    </vehicle>
    <vehicle id="-flow-random-route-3293d895-f757-4cf4-8378-24ae04cd9469--2268233105098763512-14-0.2" type="actor-car--2001210773893207408" depart="240.00" departLane="0" departPos="40.61" departSpeed="max" arrivalLane="1" arrivalPos="26.83">
        <route edges="edge-east-EN edge-north-NW"/>
    </vehicle>
    <vehicle id="-flow-random-route-330cda31-80aa-43bf-a898-19a48e69d2a7--2268233105098763512-13-0.2" type="actor-car--2001210773893207408" depart="240.00" departLane="0" departPos="16.73" departSpeed="max" arrivalLane="0" arrivalPos="13.09">
        <route edges="-gneE36 edge-north-NW edge-west-WS edge-south-SE edge-east-EN edge-north-NW edge-west-WS edge-south-SE edge-east-EN gneE36"/>
    </vehicle>
    <vehicle id="-flow-random-route-37a1e733-dc00-4040-a711-6307d9c6cfde--2268233105098763512-17-0.2" type="actor-car--2001210773893207408" depart="240.00" departLane="1" departPos="59.44" departSpeed="max" arrivalLane="1" arrivalPos="8.71">
        <route edges="edge-north-NW gneE41 gneE42 gneE51 -gneE48 -gneE37 -gneE36 edge-north-NW edge-west-WS edge-south-SE"/>
    </vehicle>
    <vehicle id="-flow-random-route-430e1e52-33cb-4f7d-89f2-7276ebe61baa--2268233105098763512-19-0.2" type="actor-car--2001210773893207408" depart="240.00" departLane="0" departPos="65.67" departSpeed="max" arrivalLane="0" arrivalPos="53.11">
        <route edges="gneE37 gneE48"/>
    </vehicle>
    <vehicle id="-flow-random-route-463a00c2-3a76-4740-96f5-6d86bd97a8f9--2268233105098763512-27-0.2" type="actor-car--2001210773893207408" depart="240.00" departLane="0" departPos="82.61" departSpeed="max" arrivalLane="0" arrivalPos="74.88">
        <route edges="gneE37 gneE48"/>
    </vehicle>
    <vehicle id="-flow-random-route-47e5a16b-3c82-40f5-aa31-94a43b0e9ec6--2268233105098763512-5-0.2" type="actor-car--2001210773893207408" depart="240.00" departLane="0" departPos="43.54" departSpeed="max" arrivalLane="1" arrivalPos="4.28">
        <route edges="edge-east-EN edge-north-NW gneE41"/>
    </vehicle>
    <vehicle id="-flow-random-route-4ac627a4-6967-44e9-8d0d-c041ff77440a--2268233105098763512-29-0.2" type="actor-car--2001210773893207408" depart="240.00" departLane="0" departPos="59.30" departSpeed="max" arrivalLane="0" arrivalPos="45.06">
        <route edges="edge-east-EN gneE36 gneE37 gneE48 gneE53 gneE14 gneE13 edge-south-SE edge-east-EN edge-north-NW"/>
    </vehicle>
    <vehicle id="-flow-random-route-5727f206-1cc0-48c7-a27f-55e1e3965946--2268233105098763512-6-0.2" type="actor-car--2001210773893207408" depart="240.00" departLane="1" departPos="53.49" departSpeed="max" arrivalLane="0" arrivalPos="99.01">
        <route edges="gneE14 gneE13 edge-south-SE edge-east-EN edge-north-NW gneE41 gneE42 gneE51 -gneE48 -gneE37"/>
    </vehicle>
    <vehicle id="-flow-random-route-5b510413-81ab-4b39-8c17-bca114713728--2268233105098763512-25-0.2" type="actor-car--2001210773893207408" depart="240.00" departLane="0" departPos="70.18" departSpeed="max" arrivalLane="0" arrivalPos="17.32">
        <route edges="-gneE48 -gneE37 -gneE36"/>
    </vehicle>
    <vehicle id="-flow-random-route-603b16b5-361b-4c3b-b785-a6ae99d45e4f--2268233105098763512-23-0.2" type="actor-car--2001210773893207408" depart="240.00" departLane="0" departPos="40.41" departSpeed="max" arrivalLane="0" arrivalPos="38.44">
        <route edges="gneE13 edge-south-SE"/>
    </vehicle>
    <vehicle id="-flow-random-route-6123027b-177b-4abb-a8a8-7817ea4be411--2268233105098763512-0-0.2" type="actor-car--2001210773893207408" depart="240.00" departLane="1" departPos="81.61" departSpeed="max" arrivalLane="0" arrivalPos="26.98">
        <route edges="gneE14 gneE13 edge-south-SE edge-east-EN edge-north-NW gneE41 gneE42 gneE51 -gneE48 -gneE37"/>
    </vehicle>
    <vehicle id="-flow-random-route-66208df2-0f63-4322-ab1e-ddd7a38fa710--2268233105098763512-11-0.2" type="actor-car--2001210773893207408" depart="240.00" departLane="0" departPos="89.20" departSpeed="max" arrivalLane="0" arrivalPos="4.18">
        <route edges="-gneE48 -gneE37 -gneE36"/>
    </vehicle>
    <vehicle id="-flow-random-route-79ccb97a-1e28-4f27-96cd-b5b1aafc3b84--2268233105098763512-12-0.2" type="actor-car--2001210773893207408" depart="240.00" departLane="0" departPos="50.79" departSpeed="max" arrivalLane="0" arrivalPos="47.09">
        <route edges="gneE42 gneE51 -gneE48"/>
    </vehicle>
    <vehicle id="-flow-random-route-7cccfa34-028c-4ced-8bce-e483f5c078b3--2268233105098763512-7-0.2" type="actor-car--2001210773893207408" depart="240.00" departLane="0" departPos="32.39" departSpeed="max" arrivalLane="1" arrivalPos="6.29">
        <route edges="-gneE37 -gneE36 edge-north-NW edge-west-WS edge-south-SE edge-east-EN gneE36 gneE37 gneE48 gneE53"/>
    </vehicle>
    <vehicle id="-flow-random-route-7de48d6b-d70c-4bf8-aaf3-63d7e6db1ab5--2268233105098763512-10-0.2" type="actor-car--2001210773893207408" depart="240.00" departLane="0" departPos="10.65" departSpeed="max" arrivalLane="1" arrivalPos="6.38">
        <route edges="gneE48 gneE53 gneE14 gneE13 edge-south-SE edge-east-EN"/>
    </vehicle>