<?xml version="1.0" encoding="UTF-8"?>

<!-- generated on Sun Aug 16 11:47:21 2020 by Eclipse SUMO duarouter Version 1.6.0
<configuration xmlns:xsi="http://www.w3.org/2001/XMLSchema-instance" xsi:noNamespaceSchemaLocation="http://sumo.dlr.de/xsd/duarouterConfiguration.xsd">

    <input>
        <net-file value="dataset_public/roundabout_loop/roundabout_a/map.net.xml"/>
        <route-files value="/tmp/tmpknapke9w/trips.trips.xml"/>
    </input>

    <output>
        <output-file value="dataset_public/roundabout_loop/roundabout_a/traffic/30_patient_car.rou.xml"/>
        <alternatives-output value="dataset_public/roundabout_loop/roundabout_a/traffic/30_patient_car.rou.alt.xml"/>
    </output>

    <processing>
        <unsorted-input value="true"/>
        <repair value="true"/>
    </processing>

    <report>
        <error-log value="/tmp/smarts/_duarouter_routing/traffic/30_patient_car.log"/>
        <no-step-log value="true"/>
    </report>

    <random_number>
        <seed value="42"/>
    </random_number>

</configuration>
-->

<routes xmlns:xsi="http://www.w3.org/2001/XMLSchema-instance" xsi:noNamespaceSchemaLocation="http://sumo.dlr.de/xsd/routes_file.xsd">
    <vType id="actor-car-8387641559323424354" minGap="2.50" speedFactor="normc(0.50,0.20,0.20,2.00)" vClass="passenger" impatience="0.50" lcCooperative="0.5" lcImpatience="0" jmDriveAfterYellowTime="1.0" accel="2.6" decel="4.5" sigma="0.5"/>
    <vehicle id="-flow-random-route-07e25c60-9ab9-4f1a-b1dc-ffa2988ce371--1199067277037794637-15-0.0" type="actor-car-8387641559323424354" depart="0.00" departLane="0" departPos="40.61" departSpeed="max" arrivalLane="1" arrivalPos="26.83">
        <route edges="edge-east-EN edge-north-NW"/>
    </vehicle>
    <vehicle id="-flow-random-route-1c7bea12-e7d7-4c45-8976-2da1993e783f--1199067277037794637-11-0.0" type="actor-car-8387641559323424354" depart="0.00" departLane="1" departPos="59.44" departSpeed="max" arrivalLane="1" arrivalPos="8.71">
        <route edges="edge-north-NW gneE41 gneE42 gneE51 -gneE48 -gneE37 -gneE36 edge-north-NW edge-west-WS edge-south-SE"/>
    </vehicle>
    <vehicle id="-flow-random-route-3c015892-8e75-4fab-bdec-c3724fe4a417--1199067277037794637-17-0.0" type="actor-car-8387641559323424354" depart="0.00" departLane="0" departPos="10.65" departSpeed="max" arrivalLane="1" arrivalPos="6.38">
        <route edges="gneE48 gneE53 gneE14 gneE13 edge-south-SE edge-east-EN"/>
    </vehicle>
    <vehicle id="-flow-random-route-3c24eeb8-a0d5-469c-95fb-312642599e72--1199067277037794637-27-0.0" type="actor-car-8387641559323424354" depart="0.00" departLane="1" departPos="52.92" departSpeed="max" arrivalLane="0" arrivalPos="25.87">
        <route edges="edge-east-EN edge-north-NW edge-west-WS edge-south-SE edge-east-EN gneE36 gneE37 gneE48 gneE53 gneE14"/>
    </vehicle>
    <vehicle id="-flow-random-route-3e8347ef-4f59-4d1e-ac70-a64bb973986c--1199067277037794637-13-0.0" type="actor-car-8387641559323424354" depart="0.00" departLane="0" departPos="65.67" departSpeed="max" arrivalLane="0" arrivalPos="53.11">
        <route edges="gneE37 gneE48"/>
    </vehicle>
    <vehicle id="-flow-random-route-42e5ed73-2ec8-4d9e-8595-ef7a66cb2a16--1199067277037794637-10-0.0" type="actor-car-8387641559323424354" depart="0.00" departLane="0" departPos="59.30" departSpeed="max" arrivalLane="0" arrivalPos="45.06">
        <route edges="edge-east-EN gneE36 gneE37 gneE48 gneE53 gneE14 gneE13 edge-south-SE edge-east-EN edge-north-NW"/>
    </vehicle>
    <vehicle id="-flow-random-route-487d75dd-3afd-4238-9032-6415781e4213--1199067277037794637-6-0.0" type="actor-car-8387641559323424354" depart="0.00" departLane="0" departPos="14.71" departSpeed="max" arrivalLane="0" arrivalPos="49.42">
        <route edges="-gneE36 edge-north-NW"/>
    </vehicle>
    <vehicle id="-flow-random-route-563a6ede-fceb-4800-a129-7e81a4c1bcf2--1199067277037794637-23-0.0" type="actor-car-8387641559323424354" depart="0.00" departLane="1" departPos="53.49" departSpeed="max" arrivalLane="0" arrivalPos="99.01">
        <route edges="gneE14 gneE13 edge-south-SE edge-east-EN edge-north-NW gneE41 gneE42 gneE51 -gneE48 -gneE37"/>
    </vehicle>
    <vehicle id="-flow-random-route-59eac256-e666-43dd-a5db-734f70bacba9--1199067277037794637-1-0.0" type="actor-car-8387641559323424354" depart="0.00" departLane="1" departPos="55.00" departSpeed="max" arrivalLane="1" arrivalPos="40.41">
        <route edges="edge-east-EN gneE36 gneE37 gneE48 gneE53 gneE14 gneE13 edge-south-SE edge-east-EN edge-north-NW"/>
    </vehicle>
    <vehicle id="-flow-random-route-62956a40-2793-4b41-9556-bd7999eaaec6--1199067277037794637-3-0.0" type="actor-car-8387641559323424354" depart="0.00" departLane="0" departPos="43.54" departSpeed="max" arrivalLane="1" arrivalPos="4.28">
        <route edges="edge-east-EN edge-north-NW gneE41"/>
    </vehicle>
    <vehicle id="-flow-random-route-68273232-534d-44b9-9ddf-bb3d5900f1d4--1199067277037794637-9-0.0" type="actor-car-8387641559323424354" depart="0.00" departLane="0" departPos="49.00" departSpeed="max" arrivalLane="0" arrivalPos="37.23">
        <route edges="gneE14 gneE13"/>
    </vehicle>
    <vehicle id="-flow-random-route-7bb098c0-86e4-4ed2-b6b9-992bdf589143--1199067277037794637-4-0.0" type="actor-car-8387641559323424354" depart="0.00" departLane="0" departPos="80.70" departSpeed="max" arrivalLane="0" arrivalPos="0.18">
        <route edges="-gneE37 -gneE36 edge-north-NW edge-west-WS edge-south-SE edge-east-EN edge-north-NW gneE41 gneE42 gneE51"/>
    </vehicle>
    <vehicle id="-flow-random-route-82051bcb-7fa1-4e91-85a7-202dc9497886--1199067277037794637-14-0.0" type="actor-car-8387641559323424354" depart="0.00" departLane="0" departPos="16.73" departSpeed="max" arrivalLane="0" arrivalPos="13.09">
        <route edges="-gneE36 edge-north-NW edge-west-WS edge-south-SE edge-east-EN edge-north-NW edge-west-WS edge-south-SE edge-east-EN gneE36"/>
    </vehicle>
    <vehicle id="-flow-random-route-8d2e5a02-0e0f-44ad-94b6-e45d942f281f--1199067277037794637-12-0.0" type="actor-car-8387641559323424354" depart="0.00" departLane="0" departPos="5.17" departSpeed="max" arrivalLane="1" arrivalPos="18.89">
        <route edges="-gneE36 edge-north-NW gneE41 gneE42 gneE51 -gneE48 -gneE37 -gneE36 edge-north-NW edge-west-WS"/>
    </vehicle>
    <vehicle id="-flow-random-route-a348ce67-8fb4-4cf6-80a5-31614ea1d44b--1199067277037794637-5-0.0" type="actor-car-8387641559323424354" depart="0.00" departLane="0" departPos="89.20" departSpeed="max" arrivalLane="0" arrivalPos="4.18">
        <route edges="-gneE48 -gneE37 -gneE36"/>
    </vehicle>
    <vehicle id="-flow-random-route-a35814c9-1dbd-4f37-9fe5-10229395d344--1199067277037794637-0-0.0" type="actor-car-8387641559323424354" depart="0.00" departLane="0" departPos="57.03" departSpeed="max" arrivalLane="0" arrivalPos="37.00">
        <route edges="gneE13 edge-south-SE"/>
    </vehicle>
    <vehicle id="-flow-random-route-ae56bd09-ed12-4ae1-bfec-59952eb5dccd--1199067277037794637-7-0.0" type="actor-car-8387641559323424354" depart="0.00" departLane="1" departPos="17.76" departSpeed="max" arrivalLane="0" arrivalPos="95.19">
        <route edges="gneE13 edge-south-SE edge-east-EN edge-north-NW edge-west-WS edge-south-SE edge-east-EN gneE36 gneE37 gneE48"/>
    </vehicle>
    <vehicle id="-flow-random-route-bbf3c3cb-de9b-4cc3-8668-067191e1cb90--1199067277037794637-24-0.0" type="actor-car-8387641559323424354" depart="0.00" departLane="0" departPos="50.79" departSpeed="max" arrivalLane="0" arrivalPos="47.09">
        <route edges="gneE42 gneE51 -gneE48"/>
    </vehicle>
    <vehicle id="-flow-random-route-c070be78-4ca3-4875-887c-0b13ba14d416--1199067277037794637-21-0.0" type="actor-car-8387641559323424354" depart="0.00" departLane="0" departPos="70.18" departSpeed="max" arrivalLane="0" arrivalPos="17.32">
        <route edges="-gneE48 -gneE37 -gneE36"/>
    </vehicle>
    <vehicle id="-flow-random-route-c54e33c5-ab38-41fa-9f21-4d5e558d4de6--1199067277037794637-20-0.0" type="actor-car-8387641559323424354" depart="0.00" departLane="0" departPos="61.54" departSpeed="max" arrivalLane="1" arrivalPos="66.39">
        <route edges="-gneE48 -gneE37 -gneE36 edge-north-NW edge-west-WS edge-south-SE edge-east-EN edge-north-NW gneE41 gneE42"/>
    </vehicle>
    <vehicle id="-flow-random-route-d0d23309-784d-401e-a1da-1fbb8957c322--1199067277037794637-22-0.0" type="actor-car-8387641559323424354" depart="0.00" departLane="1" departPos="12.16" departSpeed="max" arrivalLane="0" arrivalPos="77.64">
        <route edges="gneE51 -gneE48 -gneE37"/>
    </vehicle>
    <vehicle id="-flow-random-route-d16b5764-51c7-4365-abfb-e56fdc3b69bb--1199067277037794637-19-0.0" type="actor-car-8387641559323424354" depart="0.00" departLane="0" departPos="82.61" departSpeed="max" arrivalLane="0" arrivalPos="74.88">
        <route edges="gneE37 gneE48"/>
    </vehicle>
    <vehicle id="-flow-random-route-db2549ff-998c-4bbe-a21e-f025d74e0c5f--1199067277037794637-29-0.0" type="actor-car-8387641559323424354" depart="0.00" departLane="0" departPos="12.69" departSpeed="max" arrivalLane="1" arrivalPos="56.78">
        <route edges="gneE37 gneE48 gneE53 gneE14 gneE13 edge-south-SE edge-east-EN edge-north-NW gneE41 gneE42"/>
    </vehicle>
    <vehicle id="-flow-random-route-df8d4702-d57a-4038-8994-63b1b43a0906--1199067277037794637-28-0.0" type="actor-car-8387641559323424354" depart="0.00" departLane="0" departPos="6.16" departSpeed="max" arrivalLane="1" arrivalPos="53.83">
        <route edges="edge-south-SE edge-east-EN"/>
    </vehicle>
    <vehicle id="-flow-random-route-e53dd233-9c6c-4305-90fb-e963a2f3b4b6--1199067277037794637-8-0.0" type="actor-car-8387641559323424354" depart="0.00" departLane="0" departPos="8.62" departSpeed="max" arrivalLane="1" arrivalPos="65.00">
        <route edges="gneE41 gneE42 gneE51 -gneE48 -gneE37 -gneE36 edge-north-NW edge-west-WS edge-south-SE edge-east-EN"/>
    </vehicle>
    <vehicle id="-flow-random-route-ec6c4bae-6954-47a0-b4d7-0c6927243f58--1199067277037794637-25-0.0" type="actor-car-8387641559323424354" depart="0.00" departLane="0" departPos="32.39" departSpeed="max" arrivalLane="1" arrivalPos="6.29">
        <route edges="-gneE37 -gneE36 edge-north-NW edge-west-WS edge-south-SE edge-east-EN gneE36 gneE37 gneE48 gneE53"/>
    </vehicle>
    <vehicle id="-flow-random-route-f23cf85c-7b33-4a9d-97a4-ec87b81b45a6--1199067277037794637-2-0.0" type="actor-car-8387641559323424354" depart="0.00" departLane="1" departPos="81.61" departSpeed="max" arrivalLane="0" arrivalPos="26.98">
        <route edges="gneE14 gneE13 edge-south-SE edge-east-EN edge-north-NW gneE41 gneE42 gneE51 -gneE48 -gneE37"/>
    </vehicle>
    <vehicle id="-flow-random-route-f75b806f-751d-42fc-a9d4-aff10e302432--1199067277037794637-16-0.0" type="actor-car-8387641559323424354" depart="0.00" departLane="0" departPos="166.20" departSpeed="max" arrivalLane="0" arrivalPos="38.25">
        <route edges="-gneE37 -gneE36 edge-north-NW"/>
    </vehicle>
    <vehicle id="-flow-random-route-fd103de0-deee-4ca2-96c5-6cb4ee20527f--1199067277037794637-18-0.0" type="actor-car-8387641559323424354" depart="0.00" departLane="1" departPos="34.35" departSpeed="max" arrivalLane="0" arrivalPos="82.43">
        <route edges="gneE14 gneE13 edge-south-SE edge-east-EN edge-north-NW gneE41 gneE42 gneE51 -gneE48 -gneE37"/>
    </vehicle>
    <vehicle id="-flow-random-route-fea68821-88b3-4d26-be5c-5288dd4e6e58--1199067277037794637-26-0.0" type="actor-car-8387641559323424354" depart="0.00" departLane="0" departPos="40.41" departSpeed="max" arrivalLane="0" arrivalPos="38.44">
        <route edges="gneE13 edge-south-SE"/>
    </vehicle>
    <vehicle id="-flow-random-route-07e25c60-9ab9-4f1a-b1dc-ffa2988ce371--1199067277037794637-15-0.1" type="actor-car-8387641559323424354" depart="120.00" departLane="0" departPos="40.61" departSpeed="max" arrivalLane="1" arrivalPos="26.83">
        <route edges="edge-east-EN edge-north-NW"/>
    </vehicle>
    <vehicle id="-flow-random-route-1c7bea12-e7d7-4c45-8976-2da1993e783f--1199067277037794637-11-0.1" type="actor-car-8387641559323424354" depart="120.00" departLane="1" departPos="59.44" departSpeed="max" arrivalLane="1" arrivalPos="8.71">
        <route edges="edge-north-NW gneE41 gneE42 gneE51 -gneE48 -gneE37 -gneE36 edge-north-NW edge-west-WS edge-south-SE"/>
    </vehicle>
    <vehicle id="-flow-random-route-3c015892-8e75-4fab-bdec-c3724fe4a417--1199067277037794637-17-0.1" type="actor-car-8387641559323424354" depart="120.00" departLane="0" departPos="10.65" departSpeed="max" arrivalLane="1" arrivalPos="6.38">
        <route edges="gneE48 gneE53 gneE14 gneE13 edge-south-SE edge-east-EN"/>
    </vehicle>
    <vehicle id="-flow-random-route-3c24eeb8-a0d5-469c-95fb-312642599e72--1199067277037794637-27-0.1" type="actor-car-8387641559323424354" depart="120.00" departLane="1" departPos="52.92" departSpeed="max" arrivalLane="0" arrivalPos="25.87">
        <route edges="edge-east-EN edge-north-NW edge-west-WS edge-south-SE edge-east-EN gneE36 gneE37 gneE48 gneE53 gneE14"/>
    </vehicle>
    <vehicle id="-flow-random-route-3e8347ef-4f59-4d1e-ac70-a64bb973986c--1199067277037794637-13-0.1" type="actor-car-8387641559323424354" depart="120.00" departLane="0" departPos="65.67" departSpeed="max" arrivalLane="0" arrivalPos="53.11">
        <route edges="gneE37 gneE48"/>
    </vehicle>
    <vehicle id="-flow-random-route-42e5ed73-2ec8-4d9e-8595-ef7a66cb2a16--1199067277037794637-10-0.1" type="actor-car-8387641559323424354" depart="120.00" departLane="0" departPos="59.30" departSpeed="max" arrivalLane="0" arrivalPos="45.06">
        <route edges="edge-east-EN gneE36 gneE37 gneE48 gneE53 gneE14 gneE13 edge-south-SE edge-east-EN edge-north-NW"/>
    </vehicle>
    <vehicle id="-flow-random-route-487d75dd-3afd-4238-9032-6415781e4213--1199067277037794637-6-0.1" type="actor-car-8387641559323424354" depart="120.00" departLane="0" departPos="14.71" departSpeed="max" arrivalLane="0" arrivalPos="49.42">
        <route edges="-gneE36 edge-north-NW"/>
    </vehicle>
    <vehicle id="-flow-random-route-563a6ede-fceb-4800-a129-7e81a4c1bcf2--1199067277037794637-23-0.1" type="actor-car-8387641559323424354" depart="120.00" departLane="1" departPos="53.49" departSpeed="max" arrivalLane="0" arrivalPos="99.01">
        <route edges="gneE14 gneE13 edge-south-SE edge-east-EN edge-north-NW gneE41 gneE42 gneE51 -gneE48 -gneE37"/>
    </vehicle>
    <vehicle id="-flow-random-route-59eac256-e666-43dd-a5db-734f70bacba9--1199067277037794637-1-0.1" type="actor-car-8387641559323424354" depart="120.00" departLane="1" departPos="55.00" departSpeed="max" arrivalLane="1" arrivalPos="40.41">
        <route edges="edge-east-EN gneE36 gneE37 gneE48 gneE53 gneE14 gneE13 edge-south-SE edge-east-EN edge-north-NW"/>
    </vehicle>
    <vehicle id="-flow-random-route-62956a40-2793-4b41-9556-bd7999eaaec6--1199067277037794637-3-0.1" type="actor-car-8387641559323424354" depart="120.00" departLane="0" departPos="43.54" departSpeed="max" arrivalLane="1" arrivalPos="4.28">
        <route edges="edge-east-EN edge-north-NW gneE41"/>
    </vehicle>
    <vehicle id="-flow-random-route-68273232-534d-44b9-9ddf-bb3d5900f1d4--1199067277037794637-9-0.1" type="actor-car-8387641559323424354" depart="120.00" departLane="0" departPos="49.00" departSpeed="max" arrivalLane="0" arrivalPos="37.23">
        <route edges="gneE14 gneE13"/>
    </vehicle>
    <vehicle id="-flow-random-route-7bb098c0-86e4-4ed2-b6b9-992bdf589143--1199067277037794637-4-0.1" type="actor-car-8387641559323424354" depart="120.00" departLane="0" departPos="80.70" departSpeed="max" arrivalLane="0" arrivalPos="0.18">
        <route edges="-gneE37 -gneE36 edge-north-NW edge-west-WS edge-south-SE edge-east-EN edge-north-NW gneE41 gneE42 gneE51"/>
    </vehicle>
    <vehicle id="-flow-random-route-82051bcb-7fa1-4e91-85a7-202dc9497886--1199067277037794637-14-0.1" type="actor-car-8387641559323424354" depart="120.00" departLane="0" departPos="16.73" departSpeed="max" arrivalLane="0" arrivalPos="13.09">
        <route edges="-gneE36 edge-north-NW edge-west-WS edge-south-SE edge-east-EN edge-north-NW edge-west-WS edge-south-SE edge-east-EN gneE36"/>
    </vehicle>
    <vehicle id="-flow-random-route-8d2e5a02-0e0f-44ad-94b6-e45d942f281f--1199067277037794637-12-0.1" type="actor-car-8387641559323424354" depart="120.00" departLane="0" departPos="5.17" departSpeed="max" arrivalLane="1" arrivalPos="18.89">
        <route edges="-gneE36 edge-north-NW gneE41 gneE42 gneE51 -gneE48 -gneE37 -gneE36 edge-north-NW edge-west-WS"/>
    </vehicle>
    <vehicle id="-flow-random-route-a348ce67-8fb4-4cf6-80a5-31614ea1d44b--1199067277037794637-5-0.1" type="actor-car-8387641559323424354" depart="120.00" departLane="0" departPos="89.20" departSpeed="max" arrivalLane="0" arrivalPos="4.18">
        <route edges="-gneE48 -gneE37 -gneE36"/>
    </vehicle>
    <vehicle id="-flow-random-route-a35814c9-1dbd-4f37-9fe5-10229395d344--1199067277037794637-0-0.1" type="actor-car-8387641559323424354" depart="120.00" departLane="0" departPos="57.03" departSpeed="max" arrivalLane="0" arrivalPos="37.00">
        <route edges="gneE13 edge-south-SE"/>
    </vehicle>
    <vehicle id="-flow-random-route-ae56bd09-ed12-4ae1-bfec-59952eb5dccd--1199067277037794637-7-0.1" type="actor-car-8387641559323424354" depart="120.00" departLane="1" departPos="17.76" departSpeed="max" arrivalLane="0" arrivalPos="95.19">
        <route edges="gneE13 edge-south-SE edge-east-EN edge-north-NW edge-west-WS edge-south-SE edge-east-EN gneE36 gneE37 gneE48"/>
    </vehicle>
    <vehicle id="-flow-random-route-bbf3c3cb-de9b-4cc3-8668-067191e1cb90--1199067277037794637-24-0.1" type="actor-car-8387641559323424354" depart="120.00" departLane="0" departPos="50.79" departSpeed="max" arrivalLane="0" arrivalPos="47.09">
        <route edges="gneE42 gneE51 -gneE48"/>
    </vehicle>
    <vehicle id="-flow-random-route-c070be78-4ca3-4875-887c-0b13ba14d416--1199067277037794637-21-0.1" type="actor-car-8387641559323424354" depart="120.00" departLane="0" departPos="70.18" departSpeed="max" arrivalLane="0" arrivalPos="17.32">
        <route edges="-gneE48 -gneE37 -gneE36"/>
    </vehicle>
    <vehicle id="-flow-random-route-c54e33c5-ab38-41fa-9f21-4d5e558d4de6--1199067277037794637-20-0.1" type="actor-car-8387641559323424354" depart="120.00" departLane="0" departPos="61.54" departSpeed="max" arrivalLane="1" arrivalPos="66.39">
        <route edges="-gneE48 -gneE37 -gneE36 edge-north-NW edge-west-WS edge-south-SE edge-east-EN edge-north-NW gneE41 gneE42"/>
    </vehicle>
    <vehicle id="-flow-random-route-d0d23309-784d-401e-a1da-1fbb8957c322--1199067277037794637-22-0.1" type="actor-car-8387641559323424354" depart="120.00" departLane="1" departPos="12.16" departSpeed="max" arrivalLane="0" arrivalPos="77.64">
        <route edges="gneE51 -gneE48 -gneE37"/>
    </vehicle>
    <vehicle id="-flow-random-route-d16b5764-51c7-4365-abfb-e56fdc3b69bb--1199067277037794637-19-0.1" type="actor-car-8387641559323424354" depart="120.00" departLane="0" departPos="82.61" departSpeed="max" arrivalLane="0" arrivalPos="74.88">
        <route edges="gneE37 gneE48"/>
    </vehicle>
    <vehicle id="-flow-random-route-db2549ff-998c-4bbe-a21e-f025d74e0c5f--1199067277037794637-29-0.1" type="actor-car-8387641559323424354" depart="120.00" departLane="0" departPos="12.69" departSpeed="max" arrivalLane="1" arrivalPos="56.78">
        <route edges="gneE37 gneE48 gneE53 gneE14 gneE13 edge-south-SE edge-east-EN edge-north-NW gneE41 gneE42"/>
    </vehicle>
    <vehicle id="-flow-random-route-df8d4702-d57a-4038-8994-63b1b43a0906--1199067277037794637-28-0.1" type="actor-car-8387641559323424354" depart="120.00" departLane="0" departPos="6.16" departSpeed="max" arrivalLane="1" arrivalPos="53.83">
        <route edges="edge-south-SE edge-east-EN"/>
    </vehicle>
    <vehicle id="-flow-random-route-e53dd233-9c6c-4305-90fb-e963a2f3b4b6--1199067277037794637-8-0.1" type="actor-car-8387641559323424354" depart="120.00" departLane="0" departPos="8.62" departSpeed="max" arrivalLane="1" arrivalPos="65.00">
        <route edges="gneE41 gneE42 gneE51 -gneE48 -gneE37 -gneE36 edge-north-NW edge-west-WS edge-south-SE edge-east-EN"/>
    </vehicle>
    <vehicle id="-flow-random-route-ec6c4bae-6954-47a0-b4d7-0c6927243f58--1199067277037794637-25-0.1" type="actor-car-8387641559323424354" depart="120.00" departLane="0" departPos="32.39" departSpeed="max" arrivalLane="1" arrivalPos="6.29">
        <route edges="-gneE37 -gneE36 edge-north-NW edge-west-WS edge-south-SE edge-east-EN gneE36 gneE37 gneE48 gneE53"/>
    </vehicle>
    <vehicle id="-flow-random-route-f23cf85c-7b33-4a9d-97a4-ec87b81b45a6--1199067277037794637-2-0.1" type="actor-car-8387641559323424354" depart="120.00" departLane="1" departPos="81.61" departSpeed="max" arrivalLane="0" arrivalPos="26.98">
        <route edges="gneE14 gneE13 edge-south-SE edge-east-EN edge-north-NW gneE41 gneE42 gneE51 -gneE48 -gneE37"/>
    </vehicle>
    <vehicle id="-flow-random-route-f75b806f-751d-42fc-a9d4-aff10e302432--1199067277037794637-16-0.1" type="actor-car-8387641559323424354" depart="120.00" departLane="0" departPos="166.20" departSpeed="max" arrivalLane="0" arrivalPos="38.25">
        <route edges="-gneE37 -gneE36 edge-north-NW"/>
    </vehicle>
    <vehicle id="-flow-random-route-fd103de0-deee-4ca2-96c5-6cb4ee20527f--1199067277037794637-18-0.1" type="actor-car-8387641559323424354" depart="120.00" departLane="1" departPos="34.35" departSpeed="max" arrivalLane="0" arrivalPos="82.43">
        <route edges="gneE14 gneE13 edge-south-SE edge-east-EN edge-north-NW gneE41 gneE42 gneE51 -gneE48 -gneE37"/>
    </vehicle>
    <vehicle id="-flow-random-route-fea68821-88b3-4d26-be5c-5288dd4e6e58--1199067277037794637-26-0.1" type="actor-car-8387641559323424354" depart="120.00" departLane="0" departPos="40.41" departSpeed="max" arrivalLane="0" arrivalPos="38.44">
        <route edges="gneE13 edge-south-SE"/>
    </vehicle>
    <vehicle id="-flow-random-route-07e25c60-9ab9-4f1a-b1dc-ffa2988ce371--1199067277037794637-15-0.2" type="actor-car-8387641559323424354" depart="240.00" departLane="0" departPos="40.61" departSpeed="max" arrivalLane="1" arrivalPos="26.83">
        <route edges="edge-east-EN edge-north-NW"/>
    </vehicle>
    <vehicle id="-flow-random-route-1c7bea12-e7d7-4c45-8976-2da1993e783f--1199067277037794637-11-0.2" type="actor-car-8387641559323424354" depart="240.00" departLane="1" departPos="59.44" departSpeed="max" arrivalLane="1" arrivalPos="8.71">
        <route edges="edge-north-NW gneE41 gneE42 gneE51 -gneE48 -gneE37 -gneE36 edge-north-NW edge-west-WS edge-south-SE"/>
    </vehicle>
    <vehicle id="-flow-random-route-3c015892-8e75-4fab-bdec-c3724fe4a417--1199067277037794637-17-0.2" type="actor-car-8387641559323424354" depart="240.00" departLane="0" departPos="10.65" departSpeed="max" arrivalLane="1" arrivalPos="6.38">
        <route edges="gneE48 gneE53 gneE14 gneE13 edge-south-SE edge-east-EN"/>
    </vehicle>
    <vehicle id="-flow-random-route-3c24eeb8-a0d5-469c-95fb-312642599e72--1199067277037794637-27-0.2" type="actor-car-8387641559323424354" depart="240.00" departLane="1" departPos="52.92" departSpeed="max" arrivalLane="0" arrivalPos="25.87">
        <route edges="edge-east-EN edge-north-NW edge-west-WS edge-south-SE edge-east-EN gneE36 gneE37 gneE48 gneE53 gneE14"/>
    </vehicle>
    <vehicle id="-flow-random-route-3e8347ef-4f59-4d1e-ac70-a64bb973986c--1199067277037794637-13-0.2" type="actor-car-8387641559323424354" depart="240.00" departLane="0" departPos="65.67" departSpeed="max" arrivalLane="0" arrivalPos="53.11">
        <route edges="gneE37 gneE48"/>
    </vehicle>
    <vehicle id="-flow-random-route-42e5ed73-2ec8-4d9e-8595-ef7a66cb2a16--1199067277037794637-10-0.2" type="actor-car-8387641559323424354" depart="240.00" departLane="0" departPos="59.30" departSpeed="max" arrivalLane="0" arrivalPos="45.06">
        <route edges="edge-east-EN gneE36 gneE37 gneE48 gneE53 gneE14 gneE13 edge-south-SE edge-east-EN edge-north-NW"/>
    </vehicle>
    <vehicle id="-flow-random-route-487d75dd-3afd-4238-9032-6415781e4213--1199067277037794637-6-0.2" type="actor-car-8387641559323424354" depart="240.00" departLane="0" departPos="14.71" departSpeed="max" arrivalLane="0" arrivalPos="49.42">
        <route edges="-gneE36 edge-north-NW"/>
    </vehicle>
    <vehicle id="-flow-random-route-563a6ede-fceb-4800-a129-7e81a4c1bcf2--1199067277037794637-23-0.2" type="actor-car-8387641559323424354" depart="240.00" departLane="1" departPos="53.49" departSpeed="max" arrivalLane="0" arrivalPos="99.01">
        <route edges="gneE14 gneE13 edge-south-SE edge-east-EN edge-north-NW gneE41 gneE42 gneE51 -gneE48 -gneE37"/>
    </vehicle>
    <vehicle id="-flow-random-route-59eac256-e666-43dd-a5db-734f70bacba9--1199067277037794637-1-0.2" type="actor-car-8387641559323424354" depart="240.00" departLane="1" departPos="55.00" departSpeed="max" arrivalLane="1" arrivalPos="40.41">
        <route edges="edge-east-EN gneE36 gneE37 gneE48 gneE53 gneE14 gneE13 edge-south-SE edge-east-EN edge-north-NW"/>
    </vehicle>
    <vehicle id="-flow-random-route-62956a40-2793-4b41-9556-bd7999eaaec6--1199067277037794637-3-0.2" type="actor-car-8387641559323424354" depart="240.00" departLane="0" departPos="43.54" departSpeed="max" arrivalLane="1" arrivalPos="4.28">
        <route edges="edge-east-EN edge-north-NW gneE41"/>
    </vehicle>
    <vehicle id="-flow-random-route-68273232-534d-44b9-9ddf-bb3d5900f1d4--1199067277037794637-9-0.2" type="actor-car-8387641559323424354" depart="240.00" departLane="0" departPos="49.00" departSpeed="max" arrivalLane="0" arrivalPos="37.23">
        <route edges="gneE14 gneE13"/>
    </vehicle>
    <vehicle id="-flow-random-route-7bb098c0-86e4-4ed2-b6b9-992bdf589143--1199067277037794637-4-0.2" type="actor-car-8387641559323424354" depart="240.00" departLane="0" departPos="80.70" departSpeed="max" arrivalLane="0" arrivalPos="0.18">
        <route edges="-gneE37 -gneE36 edge-north-NW edge-west-WS edge-south-SE edge-east-EN edge-north-NW gneE41 gneE42 gneE51"/>
    </vehicle>
    <vehicle id="-flow-random-route-82051bcb-7fa1-4e91-85a7-202dc9497886--1199067277037794637-14-0.2" type="actor-car-8387641559323424354" depart="240.00" departLane="0" departPos="16.73" departSpeed="max" arrivalLane="0" arrivalPos="13.09">
        <route edges="-gneE36 edge-north-NW edge-west-WS edge-south-SE edge-east-EN edge-north-NW edge-west-WS edge-south-SE edge-east-EN gneE36"/>
    </vehicle>
    <vehicle id="-flow-random-route-8d2e5a02-0e0f-44ad-94b6-e45d942f281f--1199067277037794637-12-0.2" type="actor-car-8387641559323424354" depart="240.00" departLane="0" departPos="5.17" departSpeed="max" arrivalLane="1" arrivalPos="18.89">
        <route edges="-gneE36 edge-north-NW gneE41 gneE42 gneE51 -gneE48 -gneE37 -gneE36 edge-north-NW edge-west-WS"/>
    </vehicle>
    <vehicle id="-flow-random-route-a348ce67-8fb4-4cf6-80a5-31614ea1d44b--1199067277037794637-5-0.2" type="actor-car-8387641559323424354" depart="240.00" departLane="0" departPos="89.20" departSpeed="max" arrivalLane="0" arrivalPos="4.18">
        <route edges="-gneE48 -gneE37 -gneE36"/>
    </vehicle>
    <vehicle id="-flow-random-route-a35814c9-1dbd-4f37-9fe5-10229395d344--1199067277037794637-0-0.2" type="actor-car-8387641559323424354" depart="240.00" departLane="0" departPos="57.03" departSpeed="max" arrivalLane="0" arrivalPos="37.00">
        <route edges="gneE13 edge-south-SE"/>
    </vehicle>
    <vehicle id="-flow-random-route-ae56bd09-ed12-4ae1-bfec-59952eb5dccd--1199067277037794637-7-0.2" type="actor-car-8387641559323424354" depart="240.00" departLane="1" departPos="17.76" departSpeed="max" arrivalLane="0" arrivalPos="95.19">
        <route edges="gneE13 edge-south-SE edge-east-EN edge-north-NW edge-west-WS edge-south-SE edge-east-EN gneE36 gneE37 gneE48"/>
    </vehicle>
    <vehicle id="-flow-random-route-bbf3c3cb-de9b-4cc3-8668-067191e1cb90--1199067277037794637-24-0.2" type="actor-car-8387641559323424354" depart="240.00" departLane="0" departPos="50.79" departSpeed="max" arrivalLane="0" arrivalPos="47.09">
        <route edges="gneE42 gneE51 -gneE48"/>
    </vehicle>
    <vehicle id="-flow-random-route-c070be78-4ca3-4875-887c-0b13ba14d416--1199067277037794637-21-0.2" type="actor-car-8387641559323424354" depart="240.00" departLane="0" departPos="70.18" departSpeed="max" arrivalLane="0" arrivalPos="17.32">
        <route edges="-gneE48 -gneE37 -gneE36"/>
    </vehicle>
    <vehicle id="-flow-random-route-c54e33c5-ab38-41fa-9f21-4d5e558d4de6--1199067277037794637-20-0.2" type="actor-car-8387641559323424354" depart="240.00" departLane="0" departPos="61.54" departSpeed="max" arrivalLane="1" arrivalPos="66.39">
        <route edges="-gneE48 -gneE37 -gneE36 edge-north-NW edge-west-WS edge-south-SE edge-east-EN edge-north-NW gneE41 gneE42"/>
    </vehicle>
    <vehicle id="-flow-random-route-d0d23309-784d-401e-a1da-1fbb8957c322--1199067277037794637-22-0.2" type="actor-car-8387641559323424354" depart="240.00" departLane="1" departPos="12.16" departSpeed="max" arrivalLane="0" arrivalPos="77.64">
        <route edges="gneE51 -gneE48 -gneE37"/>
    </vehicle>
    <vehicle id="-flow-random-route-d16b5764-51c7-4365-abfb-e56fdc3b69bb--1199067277037794637-19-0.2" type="actor-car-8387641559323424354" depart="240.00" departLane="0" departPos="82.61" departSpeed="max" arrivalLane="0" arrivalPos="74.88">
        <route edges="gneE37 gneE48"/>
    </vehicle>
    <vehicle id="-flow-random-route-db2549ff-998c-4bbe-a21e-f025d74e0c5f--1199067277037794637-29-0.2" type="actor-car-8387641559323424354" depart="240.00" departLane="0" departPos="12.69" departSpeed="max" arrivalLane="1" arrivalPos="56.78">
        <route edges="gneE37 gneE48 gneE53 gneE14 gneE13 edge-south-SE edge-east-EN edge-north-NW gneE41 gneE42"/>
    </vehicle>