<?xml version="1.0" encoding="UTF-8"?>

<!-- generated on Fri Sep 18 03:18:46 2020 by Eclipse SUMO duarouter Version 1.6.0
<configuration xmlns:xsi="http://www.w3.org/2001/XMLSchema-instance" xsi:noNamespaceSchemaLocation="http://sumo.dlr.de/xsd/duarouterConfiguration.xsd">

    <input>
        <net-file value="dataset_public/intersection_loop/its_c/map.net.xml"/>
        <route-files value="/tmp/tmpq7_sphbb/trips.trips.xml"/>
    </input>

    <output>
        <output-file value="dataset_public/intersection_loop/its_c/traffic/30_patient_car.rou.xml"/>
        <alternatives-output value="dataset_public/intersection_loop/its_c/traffic/30_patient_car.rou.alt.xml"/>
    </output>

    <processing>
        <unsorted-input value="true"/>
        <repair value="true"/>
    </processing>

    <report>
        <error-log value="/tmp/smarts/_duarouter_routing/traffic/30_patient_car.log"/>
        <no-step-log value="true"/>
    </report>

    <random_number>
        <seed value="42"/>
    </random_number>

</configuration>
-->

<routes xmlns:xsi="http://www.w3.org/2001/XMLSchema-instance" xsi:noNamespaceSchemaLocation="http://sumo.dlr.de/xsd/routes_file.xsd">
    <vType id="actor-car--3268314881727865368" minGap="2.50" speedFactor="normc(0.50,0.20,0.20,2.00)" vClass="passenger" impatience="0.50" lcCooperative="0.5" lcImpatience="0" jmDriveAfterYellowTime="1.0" accel="2.6" decel="4.5" sigma="0.5"/>
    <vehicle id="-flow-random-route-0583edcf-e4aa-447e-a971-cd57d9900d61-286261874644848173-21-0.0" type="actor-car--3268314881727865368" depart="0.00" departLane="0" departPos="56.02" departSpeed="max" arrivalLane="1" arrivalPos="4.81">
        <route edges="gneE8 gneE9 gneE2"/>
    </vehicle>
    <vehicle id="-flow-random-route-14a61c00-806a-4860-99a5-3de54991eda5-286261874644848173-13-0.0" type="actor-car--3268314881727865368" depart="0.00" departLane="0" departPos="45.47" departSpeed="max" arrivalLane="0" arrivalPos="62.53">
        <route edges="gneE12 -gneE15 -gneE14 -gneE13 -gneE11 gneE12"/>
    </vehicle>
    <vehicle id="-flow-random-route-1f7ef1dc-6dc0-435e-8afa-897a51792422-286261874644848173-23-0.0" type="actor-car--3268314881727865368" depart="0.00" departLane="0" departPos="38.66" departSpeed="max" arrivalLane="1" arrivalPos="23.48">
        <route edges="gneE2 gneE12 gneE8"/>
    </vehicle>
    <vehicle id="-flow-random-route-20914bfd-3e7c-45f7-a9fd-90ed5027a77e-286261874644848173-0-0.0" type="actor-car--3268314881727865368" depart="0.00" departLane="0" departPos="22.06" departSpeed="max" arrivalLane="0" arrivalPos="73.89">
        <route edges="-gneE14 -gneE13 -gneE11 gneE12 gneE8 gneE9 gneE2 gneE11 gneE13 gneE14"/>
    </vehicle>
    <vehicle id="-flow-random-route-28df5dde-8fc8-4802-8f77-3f8126e79287-286261874644848173-10-0.0" type="actor-car--3268314881727865368" depart="0.00" departLane="0" departPos="25.52" departSpeed="max" arrivalLane="0" arrivalPos="32.84">
        <route edges="-gneE15 -gneE14 -gneE13 -gneE11 gneE12 gneE8"/>
    </vehicle>
    <vehicle id="-flow-random-route-28fb7d72-4a51-4dd8-8dc6-d591841d1eb1-286261874644848173-28-0.0" type="actor-car--3268314881727865368" depart="0.00" departLane="0" departPos="102.33" departSpeed="max" arrivalLane="0" arrivalPos="23.88">
        <route edges="gneE14 gneE15 -gneE12 gneE11 gneE13 gneE14 gneE15 gneE8 gneE9 gneE2"/>
    </vehicle>
    <vehicle id="-flow-random-route-3239626e-cd26-4e6a-9291-829e694eb58f-286261874644848173-17-0.0" type="actor-car--3268314881727865368" depart="0.00" departLane="0" departPos="36.07" departSpeed="max" arrivalLane="0" arrivalPos="26.35">
        <route edges="gneE12 gneE8 gneE9 gneE2 gneE12"/>
    </vehicle>
    <vehicle id="-flow-random-route-363ee741-3854-47a1-91ee-59f07199b2fc-286261874644848173-27-0.0" type="actor-car--3268314881727865368" depart="0.00" departLane="0" departPos="22.44" departSpeed="max" arrivalLane="0" arrivalPos="114.48">
        <route edges="gneE12 gneE8 gneE9 gneE2 gneE12"/>
    </vehicle>
    <vehicle id="-flow-random-route-4f8a3187-e185-44d2-918c-dbe3fedc02e6-286261874644848173-25-0.0" type="actor-car--3268314881727865368" depart="0.00" departLane="0" departPos="41.26" departSpeed="max" arrivalLane="0" arrivalPos="18.03">
        <route edges="gneE2 gneE12 -gneE15 -gneE14 -gneE13"/>
    </vehicle>
    <vehicle id="-flow-random-route-5901d204-accc-4bcc-ba0e-a6fdd46c5614-286261874644848173-18-0.0" type="actor-car--3268314881727865368" depart="0.00" departLane="1" departPos="52.50" departSpeed="max" arrivalLane="0" arrivalPos="47.39">
        <route edges="gneE8 gneE9 gneE2 gneE12 gneE8 gneE9 gneE2 gneE11 gneE13 gneE14"/>
    </vehicle>
    <vehicle id="-flow-random-route-59c19398-66d2-48dd-8316-1730ce474f7f-286261874644848173-7-0.0" type="actor-car--3268314881727865368" depart="0.00" departLane="0" departPos="103.85" departSpeed="max" arrivalLane="0" arrivalPos="11.20">
        <route edges="-gneE12 gneE11 gneE13 gneE14 gneE15"/>
    </vehicle>
    <vehicle id="-flow-random-route-5f8d79be-69ff-43fc-b947-49ab88c1b117-286261874644848173-4-0.0" type="actor-car--3268314881727865368" depart="0.00" departLane="0" departPos="10.46" departSpeed="max" arrivalLane="0" arrivalPos="16.57">
        <route edges="gneE11 gneE13 gneE14 gneE15 -gneE12"/>
    </vehicle>
    <vehicle id="-flow-random-route-645eabcb-a38a-428c-8ac0-f841dce4f77f-286261874644848173-12-0.0" type="actor-car--3268314881727865368" depart="0.00" departLane="0" departPos="29.29" departSpeed="max" arrivalLane="0" arrivalPos="49.45">
        <route edges="gneE13 gneE14 gneE15 -gneE12 gneE11"/>
    </vehicle>
    <vehicle id="-flow-random-route-6bc56d49-e1ac-4633-8926-ade8ebd4adf2-286261874644848173-3-0.0" type="actor-car--3268314881727865368" depart="0.00" departLane="0" departPos="29.97" departSpeed="max" arrivalLane="0" arrivalPos="7.56">
        <route edges="gneE2 gneE11 gneE13 gneE14 gneE15"/>
    </vehicle>
    <vehicle id="-flow-random-route-725f224b-d9f2-4cd2-92b2-f9d5642674f4-286261874644848173-5-0.0" type="actor-car--3268314881727865368" depart="0.00" departLane="0" departPos="2.57" departSpeed="max" arrivalLane="0" arrivalPos="93.48">
        <route edges="gneE14 gneE15 -gneE12 gneE11 gneE13"/>
    </vehicle>
    <vehicle id="-flow-random-route-77b7c535-1f92-40a5-a601-0c0bb0bcfa44-286261874644848173-26-0.0" type="actor-car--3268314881727865368" depart="0.00" departLane="0" departPos="88.28" departSpeed="max" arrivalLane="0" arrivalPos="85.30">
        <route edges="-gneE12 gneE11 gneE13"/>
    </vehicle>
    <vehicle id="-flow-random-route-81929133-ba0e-449c-bb91-45ee48952aac-286261874644848173-14-0.0" type="actor-car--3268314881727865368" depart="0.00" departLane="0" departPos="0.85" departSpeed="max" arrivalLane="0" arrivalPos="27.06">
        <route edges="gneE12 -gneE15 -gneE14 -gneE13 -gneE11 gneE12"/>
    </vehicle>
    <vehicle id="-flow-random-route-8245b7da-2f09-49cd-9616-a2ec8801d01c-286261874644848173-1-0.0" type="actor-car--3268314881727865368" depart="0.00" departLane="0" departPos="77.55" departSpeed="max" arrivalLane="0" arrivalPos="39.51">
        <route edges="-gneE14 -gneE13 -gneE11 gneE12 -gneE15"/>
    </vehicle>
    <vehicle id="-flow-random-route-84c68ea4-8c9d-4161-bc63-b8db7bbdf202-286261874644848173-19-0.0" type="actor-car--3268314881727865368" depart="0.00" departLane="0" departPos="37.51" departSpeed="max" arrivalLane="0" arrivalPos="44.48">
        <route edges="gneE9 gneE2 gneE12 -gneE15 -gneE14 -gneE13 -gneE11 gneE12 gneE8 gneE9"/>
    </vehicle>
    <vehicle id="-flow-random-route-8513f4ba-56df-4418-abb3-becfd9e84113-286261874644848173-20-0.0" type="actor-car--3268314881727865368" depart="0.00" departLane="0" departPos="10.47" departSpeed="max" arrivalLane="0" arrivalPos="77.88">
        <route edges="-gneE11 gneE12 gneE8 gneE9 gneE2 gneE11 gneE13 gneE14 gneE15 -gneE12"/>
    </vehicle>
    <vehicle id="-flow-random-route-88fbe3c9-c42f-49c5-952d-3c966ff4e258-286261874644848173-2-0.0" type="actor-car--3268314881727865368" depart="0.00" departLane="0" departPos="48.96" departSpeed="max" arrivalLane="1" arrivalPos="39.54">
        <route edges="-gneE14 -gneE13 -gneE11 gneE12 -gneE15 -gneE14 -gneE13 -gneE11 gneE12 gneE8"/>
    </vehicle>
    <vehicle id="-flow-random-route-93c174bb-57bd-4d57-98fb-b73684a37b1d-286261874644848173-24-0.0" type="actor-car--3268314881727865368" depart="0.00" departLane="0" departPos="63.68" departSpeed="max" arrivalLane="0" arrivalPos="19.34">
        <route edges="gneE14 gneE15 -gneE12 gneE11 gneE13"/>
    </vehicle>
    <vehicle id="-flow-random-route-9b1f1589-266f-4ca7-ad7e-d02a0a89f139-286261874644848173-16-0.0" type="actor-car--3268314881727865368" depart="0.00" departLane="0" departPos="36.42" departSpeed="max" arrivalLane="0" arrivalPos="20.79">
        <route edges="gneE15 -gneE12 gneE11 gneE13 gneE14 gneE15 gneE8 gneE9 gneE2 gneE12"/>
    </vehicle>
    <vehicle id="-flow-random-route-aaf64b5e-633a-48db-98dc-2390a6a3e951-286261874644848173-9-0.0" type="actor-car--3268314881727865368" depart="0.00" departLane="1" departPos="40.85" departSpeed="max" arrivalLane="0" arrivalPos="30.50">
        <route edges="gneE9 gneE2 gneE11"/>
    </vehicle>
    <vehicle id="-flow-random-route-b5f7e267-a872-4174-92e8-a90fc52bd268-286261874644848173-15-0.0" type="actor-car--3268314881727865368" depart="0.00" departLane="0" departPos="31.59" departSpeed="max" arrivalLane="0" arrivalPos="42.51">
        <route edges="gneE15 -gneE12 gneE11 gneE13 gneE14"/>
    </vehicle>
    <vehicle id="-flow-random-route-b9a851d0-1291-4267-b143-90c4d8a0a98d-286261874644848173-29-0.0" type="actor-car--3268314881727865368" depart="0.00" departLane="0" departPos="97.81" departSpeed="max" arrivalLane="0" arrivalPos="75.07">
        <route edges="-gneE14 -gneE13 -gneE11 gneE12 gneE8 gneE9 gneE2 gneE11 gneE13 gneE14"/>
    </vehicle>
    <vehicle id="-flow-random-route-be5f3917-3947-43e1-b542-d021d3858dcf-286261874644848173-22-0.0" type="actor-car--3268314881727865368" depart="0.00" departLane="0" departPos="68.23" departSpeed="max" arrivalLane="0" arrivalPos="4.65">
        <route edges="gneE12 gneE8 gneE9"/>
    </vehicle>
    <vehicle id="-flow-random-route-e74adcdd-9edf-4115-b5be-e4d19907203d-286261874644848173-11-0.0" type="actor-car--3268314881727865368" depart="0.00" departLane="0" departPos="35.79" departSpeed="max" arrivalLane="0" arrivalPos="61.44">
        <route edges="-gneE15 -gneE14 -gneE13 -gneE11 gneE12"/>
    </vehicle>
    <vehicle id="-flow-random-route-e765146c-34c7-46ee-9338-ff934e1d212c-286261874644848173-6-0.0" type="actor-car--3268314881727865368" depart="0.00" departLane="0" departPos="6.12" departSpeed="max" arrivalLane="0" arrivalPos="54.03">
        <route edges="gneE15 -gneE12 gneE11 gneE13 gneE14 gneE15 gneE8 gneE9 gneE2 gneE12"/>
    </vehicle>
    <vehicle id="-flow-random-route-f46a4742-d6d0-405b-bdaa-241e189faaa2-286261874644848173-8-0.0" type="actor-car--3268314881727865368" depart="0.00" departLane="0" departPos="41.04" departSpeed="max" arrivalLane="1" arrivalPos="10.05">
        <route edges="-gneE13 -gneE11 gneE12 gneE8 gneE9 gneE2"/>
    </vehicle>
    <vehicle id="-flow-random-route-0583edcf-e4aa-447e-a971-cd57d9900d61-286261874644848173-21-0.1" type="actor-car--3268314881727865368" depart="120.00" departLane="0" departPos="56.02" departSpeed="max" arrivalLane="1" arrivalPos="4.81">
        <route edges="gneE8 gneE9 gneE2"/>
    </vehicle>
    <vehicle id="-flow-random-route-14a61c00-806a-4860-99a5-3de54991eda5-286261874644848173-13-0.1" type="actor-car--3268314881727865368" depart="120.00" departLane="0" departPos="45.47" departSpeed="max" arrivalLane="0" arrivalPos="62.53">
        <route edges="gneE12 -gneE15 -gneE14 -gneE13 -gneE11 gneE12"/>
    </vehicle>
    <vehicle id="-flow-random-route-1f7ef1dc-6dc0-435e-8afa-897a51792422-286261874644848173-23-0.1" type="actor-car--3268314881727865368" depart="120.00" departLane="0" departPos="38.66" departSpeed="max" arrivalLane="1" arrivalPos="23.48">
        <route edges="gneE2 gneE12 gneE8"/>
    </vehicle>
    <vehicle id="-flow-random-route-20914bfd-3e7c-45f7-a9fd-90ed5027a77e-286261874644848173-0-0.1" type="actor-car--3268314881727865368" depart="120.00" departLane="0" departPos="22.06" departSpeed="max" arrivalLane="0" arrivalPos="73.89">
        <route edges="-gneE14 -gneE13 -gneE11 gneE12 gneE8 gneE9 gneE2 gneE11 gneE13 gneE14"/>
    </vehicle>
    <vehicle id="-flow-random-route-28df5dde-8fc8-4802-8f77-3f8126e79287-286261874644848173-10-0.1" type="actor-car--3268314881727865368" depart="120.00" departLane="0" departPos="25.52" departSpeed="max" arrivalLane="0" arrivalPos="32.84">
        <route edges="-gneE15 -gneE14 -gneE13 -gneE11 gneE12 gneE8"/>
    </vehicle>
    <vehicle id="-flow-random-route-28fb7d72-4a51-4dd8-8dc6-d591841d1eb1-286261874644848173-28-0.1" type="actor-car--3268314881727865368" depart="120.00" departLane="0" departPos="102.33" departSpeed="max" arrivalLane="0" arrivalPos="23.88">
        <route edges="gneE14 gneE15 -gneE12 gneE11 gneE13 gneE14 gneE15 gneE8 gneE9 gneE2"/>
    </vehicle>
    <vehicle id="-flow-random-route-3239626e-cd26-4e6a-9291-829e694eb58f-286261874644848173-17-0.1" type="actor-car--3268314881727865368" depart="120.00" departLane="0" departPos="36.07" departSpeed="max" arrivalLane="0" arrivalPos="26.35">
        <route edges="gneE12 gneE8 gneE9 gneE2 gneE12"/>
    </vehicle>
    <vehicle id="-flow-random-route-363ee741-3854-47a1-91ee-59f07199b2fc-286261874644848173-27-0.1" type="actor-car--3268314881727865368" depart="120.00" departLane="0" departPos="22.44" departSpeed="max" arrivalLane="0" arrivalPos="114.48">
        <route edges="gneE12 gneE8 gneE9 gneE2 gneE12"/>
    </vehicle>
    <vehicle id="-flow-random-route-4f8a3187-e185-44d2-918c-dbe3fedc02e6-286261874644848173-25-0.1" type="actor-car--3268314881727865368" depart="120.00" departLane="0" departPos="41.26" departSpeed="max" arrivalLane="0" arrivalPos="18.03">
        <route edges="gneE2 gneE12 -gneE15 -gneE14 -gneE13"/>
    </vehicle>
    <vehicle id="-flow-random-route-5901d204-accc-4bcc-ba0e-a6fdd46c5614-286261874644848173-18-0.1" type="actor-car--3268314881727865368" depart="120.00" departLane="1" departPos="52.50" departSpeed="max" arrivalLane="0" arrivalPos="47.39">
        <route edges="gneE8 gneE9 gneE2 gneE12 gneE8 gneE9 gneE2 gneE11 gneE13 gneE14"/>
    </vehicle>
    <vehicle id="-flow-random-route-59c19398-66d2-48dd-8316-1730ce474f7f-286261874644848173-7-0.1" type="actor-car--3268314881727865368" depart="120.00" departLane="0" departPos="103.85" departSpeed="max" arrivalLane="0" arrivalPos="11.20">
        <route edges="-gneE12 gneE11 gneE13 gneE14 gneE15"/>
    </vehicle>
    <vehicle id="-flow-random-route-5f8d79be-69ff-43fc-b947-49ab88c1b117-286261874644848173-4-0.1" type="actor-car--3268314881727865368" depart="120.00" departLane="0" departPos="10.46" departSpeed="max" arrivalLane="0" arrivalPos="16.57">
        <route edges="gneE11 gneE13 gneE14 gneE15 -gneE12"/>
    </vehicle>
    <vehicle id="-flow-random-route-645eabcb-a38a-428c-8ac0-f841dce4f77f-286261874644848173-12-0.1" type="actor-car--3268314881727865368" depart="120.00" departLane="0" departPos="29.29" departSpeed="max" arrivalLane="0" arrivalPos="49.45">
        <route edges="gneE13 gneE14 gneE15 -gneE12 gneE11"/>
    </vehicle>
    <vehicle id="-flow-random-route-6bc56d49-e1ac-4633-8926-ade8ebd4adf2-286261874644848173-3-0.1" type="actor-car--3268314881727865368" depart="120.00" departLane="0" departPos="29.97" departSpeed="max" arrivalLane="0" arrivalPos="7.56">
        <route edges="gneE2 gneE11 gneE13 gneE14 gneE15"/>
    </vehicle>
    <vehicle id="-flow-random-route-725f224b-d9f2-4cd2-92b2-f9d5642674f4-286261874644848173-5-0.1" type="actor-car--3268314881727865368" depart="120.00" departLane="0" departPos="2.57" departSpeed="max" arrivalLane="0" arrivalPos="93.48">
        <route edges="gneE14 gneE15 -gneE12 gneE11 gneE13"/>
    </vehicle>
    <vehicle id="-flow-random-route-77b7c535-1f92-40a5-a601-0c0bb0bcfa44-286261874644848173-26-0.1" type="actor-car--3268314881727865368" depart="120.00" departLane="0" departPos="88.28" departSpeed="max" arrivalLane="0" arrivalPos="85.30">
        <route edges="-gneE12 gneE11 gneE13"/>
    </vehicle>
    <vehicle id="-flow-random-route-81929133-ba0e-449c-bb91-45ee48952aac-286261874644848173-14-0.1" type="actor-car--3268314881727865368" depart="120.00" departLane="0" departPos="0.85" departSpeed="max" arrivalLane="0" arrivalPos="27.06">
        <route edges="gneE12 -gneE15 -gneE14 -gneE13 -gneE11 gneE12"/>
    </vehicle>
    <vehicle id="-flow-random-route-8245b7da-2f09-49cd-9616-a2ec8801d01c-286261874644848173-1-0.1" type="actor-car--3268314881727865368" depart="120.00" departLane="0" departPos="77.55" departSpeed="max" arrivalLane="0" arrivalPos="39.51">
        <route edges="-gneE14 -gneE13 -gneE11 gneE12 -gneE15"/>
    </vehicle>
    <vehicle id="-flow-random-route-84c68ea4-8c9d-4161-bc63-b8db7bbdf202-286261874644848173-19-0.1" type="actor-car--3268314881727865368" depart="120.00" departLane="0" departPos="37.51" departSpeed="max" arrivalLane="0" arrivalPos="44.48">
        <route edges="gneE9 gneE2 gneE12 -gneE15 -gneE14 -gneE13 -gneE11 gneE12 gneE8 gneE9"/>
    </vehicle>
    <vehicle id="-flow-random-route-8513f4ba-56df-4418-abb3-becfd9e84113-286261874644848173-20-0.1" type="actor-car--3268314881727865368" depart="120.00" departLane="0" departPos="10.47" departSpeed="max" arrivalLane="0" arrivalPos="77.88">
        <route edges="-gneE11 gneE12 gneE8 gneE9 gneE2 gneE11 gneE13 gneE14 gneE15 -gneE12"/>
    </vehicle>
    <vehicle id="-flow-random-route-88fbe3c9-c42f-49c5-952d-3c966ff4e258-286261874644848173-2-0.1" type="actor-car--3268314881727865368" depart="120.00" departLane="0" departPos="48.96" departSpeed="max" arrivalLane="1" arrivalPos="39.54">
        <route edges="-gneE14 -gneE13 -gneE11 gneE12 -gneE15 -gneE14 -gneE13 -gneE11 gneE12 gneE8"/>
    </vehicle>
    <vehicle id="-flow-random-route-93c174bb-57bd-4d57-98fb-b73684a37b1d-286261874644848173-24-0.1" type="actor-car--3268314881727865368" depart="120.00" departLane="0" departPos="63.68" departSpeed="max" arrivalLane="0" arrivalPos="19.34">
        <route edges="gneE14 gneE15 -gneE12 gneE11 gneE13"/>
    </vehicle>
    <vehicle id="-flow-random-route-9b1f1589-266f-4ca7-ad7e-d02a0a89f139-286261874644848173-16-0.1" type="actor-car--3268314881727865368" depart="120.00" departLane="0" departPos="36.42" departSpeed="max" arrivalLane="0" arrivalPos="20.79">
        <route edges="gneE15 -gneE12 gneE11 gneE13 gneE14 gneE15 gneE8 gneE9 gneE2 gneE12"/>
    </vehicle>
    <vehicle id="-flow-random-route-aaf64b5e-633a-48db-98dc-2390a6a3e951-286261874644848173-9-0.1" type="actor-car--3268314881727865368" depart="120.00" departLane="1" departPos="40.85" departSpeed="max" arrivalLane="0" arrivalPos="30.50">
        <route edges="gneE9 gneE2 gneE11"/>
    </vehicle>
    <vehicle id="-flow-random-route-b5f7e267-a872-4174-92e8-a90fc52bd268-286261874644848173-15-0.1" type="actor-car--3268314881727865368" depart="120.00" departLane="0" departPos="31.59" departSpeed="max" arrivalLane="0" arrivalPos="42.51">
        <route edges="gneE15 -gneE12 gneE11 gneE13 gneE14"/>
    </vehicle>
    <vehicle id="-flow-random-route-b9a851d0-1291-4267-b143-90c4d8a0a98d-286261874644848173-29-0.1" type="actor-car--3268314881727865368" depart="120.00" departLane="0" departPos="97.81" departSpeed="max" arrivalLane="0" arrivalPos="75.07">
        <route edges="-gneE14 -gneE13 -gneE11 gneE12 gneE8 gneE9 gneE2 gneE11 gneE13 gneE14"/>
    </vehicle>
    <vehicle id="-flow-random-route-be5f3917-3947-43e1-b542-d021d3858dcf-286261874644848173-22-0.1" type="actor-car--3268314881727865368" depart="120.00" departLane="0" departPos="68.23" departSpeed="max" arrivalLane="0" arrivalPos="4.65">
        <route edges="gneE12 gneE8 gneE9"/>
    </vehicle>
    <vehicle id="-flow-random-route-e74adcdd-9edf-4115-b5be-e4d19907203d-286261874644848173-11-0.1" type="actor-car--3268314881727865368" depart="120.00" departLane="0" departPos="35.79" departSpeed="max" arrivalLane="0" arrivalPos="61.44">
        <route edges="-gneE15 -gneE14 -gneE13 -gneE11 gneE12"/>
    </vehicle>
    <vehicle id="-flow-random-route-e765146c-34c7-46ee-9338-ff934e1d212c-286261874644848173-6-0.1" type="actor-car--3268314881727865368" depart="120.00" departLane="0" departPos="6.12" departSpeed="max" arrivalLane="0" arrivalPos="54.03">
        <route edges="gneE15 -gneE12 gneE11 gneE13 gneE14 gneE15 gneE8 gneE9 gneE2 gneE12"/>
    </vehicle>
    <vehicle id="-flow-random-route-f46a4742-d6d0-405b-bdaa-241e189faaa2-286261874644848173-8-0.1" type="actor-car--3268314881727865368" depart="120.00" departLane="0" departPos="41.04" departSpeed="max" arrivalLane="1" arrivalPos="10.05">
        <route edges="-gneE13 -gneE11 gneE12 gneE8 gneE9 gneE2"/>
    </vehicle>
    <vehicle id="-flow-random-route-0583edcf-e4aa-447e-a971-cd57d9900d61-286261874644848173-21-0.2" type="actor-car--3268314881727865368" depart="240.00" departLane="0" departPos="56.02" departSpeed="max" arrivalLane="1" arrivalPos="4.81">
        <route edges="gneE8 gneE9 gneE2"/>
    </vehicle>
    <vehicle id="-flow-random-route-14a61c00-806a-4860-99a5-3de54991eda5-286261874644848173-13-0.2" type="actor-car--3268314881727865368" depart="240.00" departLane="0" departPos="45.47" departSpeed="max" arrivalLane="0" arrivalPos="62.53">
        <route edges="gneE12 -gneE15 -gneE14 -gneE13 -gneE11 gneE12"/>
    </vehicle>
    <vehicle id="-flow-random-route-1f7ef1dc-6dc0-435e-8afa-897a51792422-286261874644848173-23-0.2" type="actor-car--3268314881727865368" depart="240.00" departLane="0" departPos="38.66" departSpeed="max" arrivalLane="1" arrivalPos="23.48">
        <route edges="gneE2 gneE12 gneE8"/>
    </vehicle>
    <vehicle id="-flow-random-route-20914bfd-3e7c-45f7-a9fd-90ed5027a77e-286261874644848173-0-0.2" type="actor-car--3268314881727865368" depart="240.00" departLane="0" departPos="22.06" departSpeed="max" arrivalLane="0" arrivalPos="73.89">
        <route edges="-gneE14 -gneE13 -gneE11 gneE12 gneE8 gneE9 gneE2 gneE11 gneE13 gneE14"/>
    </vehicle>
    <vehicle id="-flow-random-route-28df5dde-8fc8-4802-8f77-3f8126e79287-286261874644848173-10-0.2" type="actor-car--3268314881727865368" depart="240.00" departLane="0" departPos="25.52" departSpeed="max" arrivalLane="0" arrivalPos="32.84">
        <route edges="-gneE15 -gneE14 -gneE13 -gneE11 gneE12 gneE8"/>
    </vehicle>
    <vehicle id="-flow-random-route-28fb7d72-4a51-4dd8-8dc6-d591841d1eb1-286261874644848173-28-0.2" type="actor-car--3268314881727865368" depart="240.00" departLane="0" departPos="102.33" departSpeed="max" arrivalLane="0" arrivalPos="23.88">
        <route edges="gneE14 gneE15 -gneE12 gneE11 gneE13 gneE14 gneE15 gneE8 gneE9 gneE2"/>
    </vehicle>
    <vehicle id="-flow-random-route-3239626e-cd26-4e6a-9291-829e694eb58f-286261874644848173-17-0.2" type="actor-car--3268314881727865368" depart="240.00" departLane="0" departPos="36.07" departSpeed="max" arrivalLane="0" arrivalPos="26.35">
        <route edges="gneE12 gneE8 gneE9 gneE2 gneE12"/>
    </vehicle>
    <vehicle id="-flow-random-route-363ee741-3854-47a1-91ee-59f07199b2fc-286261874644848173-27-0.2" type="actor-car--3268314881727865368" depart="240.00" departLane="0" departPos="22.44" departSpeed="max" arrivalLane="0" arrivalPos="114.48">
        <route edges="gneE12 gneE8 gneE9 gneE2 gneE12"/>
    </vehicle>
    <vehicle id="-flow-random-route-4f8a3187-e185-44d2-918c-dbe3fedc02e6-286261874644848173-25-0.2" type="actor-car--3268314881727865368" depart="240.00" departLane="0" departPos="41.26" departSpeed="max" arrivalLane="0" arrivalPos="18.03">
        <route edges="gneE2 gneE12 -gneE15 -gneE14 -gneE13"/>
    </vehicle>
    <vehicle id="-flow-random-route-5901d204-accc-4bcc-ba0e-a6fdd46c5614-286261874644848173-18-0.2" type="actor-car--3268314881727865368" depart="240.00" departLane="1" departPos="52.50" departSpeed="max" arrivalLane="0" arrivalPos="47.39">
        <route edges="gneE8 gneE9 gneE2 gneE12 gneE8 gneE9 gneE2 gneE11 gneE13 gneE14"/>
    </vehicle>
    <vehicle id="-flow-random-route-59c19398-66d2-48dd-8316-1730ce474f7f-286261874644848173-7-0.2" type="actor-car--3268314881727865368" depart="240.00" departLane="0" departPos="103.85" departSpeed="max" arrivalLane="0" arrivalPos="11.20">
        <route edges="-gneE12 gneE11 gneE13 gneE14 gneE15"/>
    </vehicle>
    <vehicle id="-flow-random-route-5f8d79be-69ff-43fc-b947-49ab88c1b117-286261874644848173-4-0.2" type="actor-car--3268314881727865368" depart="240.00" departLane="0" departPos="10.46" departSpeed="max" arrivalLane="0" arrivalPos="16.57">
        <route edges="gneE11 gneE13 gneE14 gneE15 -gneE12"/>
    </vehicle>
    <vehicle id="-flow-random-route-645eabcb-a38a-428c-8ac0-f841dce4f77f-286261874644848173-12-0.2" type="actor-car--3268314881727865368" depart="240.00" departLane="0" departPos="29.29" departSpeed="max" arrivalLane="0" arrivalPos="49.45">
        <route edges="gneE13 gneE14 gneE15 -gneE12 gneE11"/>
    </vehicle>
    <vehicle id="-flow-random-route-6bc56d49-e1ac-4633-8926-ade8ebd4adf2-286261874644848173-3-0.2" type="actor-car--3268314881727865368" depart="240.00" departLane="0" departPos="29.97" departSpeed="max" arrivalLane="0" arrivalPos="7.56">
        <route edges="gneE2 gneE11 gneE13 gneE14 gneE15"/>
    </vehicle>
    <vehicle id="-flow-random-route-725f224b-d9f2-4cd2-92b2-f9d5642674f4-286261874644848173-5-0.2" type="actor-car--3268314881727865368" depart="240.00" departLane="0" departPos="2.57" departSpeed="max" arrivalLane="0" arrivalPos="93.48">
        <route edges="gneE14 gneE15 -gneE12 gneE11 gneE13"/>
    </vehicle>
    <vehicle id="-flow-random-route-77b7c535-1f92-40a5-a601-0c0bb0bcfa44-286261874644848173-26-0.2" type="actor-car--3268314881727865368" depart="240.00" departLane="0" departPos="88.28" departSpeed="max" arrivalLane="0" arrivalPos="85.30">
        <route edges="-gneE12 gneE11 gneE13"/>
    </vehicle>
    <vehicle id="-flow-random-route-81929133-ba0e-449c-bb91-45ee48952aac-286261874644848173-14-0.2" type="actor-car--3268314881727865368" depart="240.00" departLane="0" departPos="0.85" departSpeed="max" arrivalLane="0" arrivalPos="27.06">
        <route edges="gneE12 -gneE15 -gneE14 -gneE13 -gneE11 gneE12"/>
    </vehicle>
    <vehicle id="-flow-random-route-8245b7da-2f09-49cd-9616-a2ec8801d01c-286261874644848173-1-0.2" type="actor-car--3268314881727865368" depart="240.00" departLane="0" departPos="77.55" departSpeed="max" arrivalLane="0" arrivalPos="39.51">
        <route edges="-gneE14 -gneE13 -gneE11 gneE12 -gneE15"/>
    </vehicle>
    <vehicle id="-flow-random-route-84c68ea4-8c9d-4161-bc63-b8db7bbdf202-286261874644848173-19-0.2" type="actor-car--3268314881727865368" depart="240.00" departLane="0" departPos="37.51" departSpeed="max" arrivalLane="0" arrivalPos="44.48">
        <route edges="gneE9 gneE2 gneE12 -gneE15 -gneE14 -gneE13 -gneE11 gneE12 gneE8 gneE9"/>
    </vehicle>
    <vehicle id="-flow-random-route-8513f4ba-56df-4418-abb3-becfd9e84113-286261874644848173-20-0.2" type="actor-car--3268314881727865368" depart="240.00" departLane="0" departPos="10.47" departSpeed="max" arrivalLane="0" arrivalPos="77.88">
        <route edges="-gneE11 gneE12 gneE8 gneE9 gneE2 gneE11 gneE13 gneE14 gneE15 -gneE12"/>
    </vehicle>
    <vehicle id="-flow-random-route-88fbe3c9-c42f-49c5-952d-3c966ff4e258-286261874644848173-2-0.2" type="actor-car--3268314881727865368" depart="240.00" departLane="0" departPos="48.96" departSpeed="max" arrivalLane="1" arrivalPos="39.54">
        <route edges="-gneE14 -gneE13 -gneE11 gneE12 -gneE15 -gneE14 -gneE13 -gneE11 gneE12 gneE8"/>
    </vehicle>
    <vehicle id="-flow-random-route-93c174bb-57bd-4d57-98fb-b73684a37b1d-286261874644848173-24-0.2" type="actor-car--3268314881727865368" depart="240.00" departLane="0" departPos="63.68" departSpeed="max" arrivalLane="0" arrivalPos="19.34">
        <route edges="gneE14 gneE15 -gneE12 gneE11 gneE13"/>
    </vehicle>
    <vehicle id="-flow-random-route-9b1f1589-266f-4ca7-ad7e-d02a0a89f139-286261874644848173-16-0.2" type="actor-car--3268314881727865368" depart="240.00" departLane="0" departPos="36.42" departSpeed="max" arrivalLane="0" arrivalPos="20.79">
        <route edges="gneE15 -gneE12 gneE11 gneE13 gneE14 gneE15 gneE8 gneE9 gneE2 gneE12"/>
    </vehicle>
    <vehicle id="-flow-random-route-aaf64b5e-633a-48db-98dc-2390a6a3e951-286261874644848173-9-0.2" type="actor-car--3268314881727865368" depart="240.00" departLane="1" departPos="40.85" departSpeed="max" arrivalLane="0" arrivalPos="30.50">
        <route edges="gneE9 gneE2 gneE11"/>
    </vehicle>
    <vehicle id="-flow-random-route-b5f7e267-a872-4174-92e8-a90fc52bd268-286261874644848173-15-0.2" type="actor-car--3268314881727865368" depart="240.00" departLane="0" departPos="31.59" departSpeed="max" arrivalLane="0" arrivalPos="42.51">
        <route edges="gneE15 -gneE12 gneE11 gneE13 gneE14"/>
    </vehicle>
    <vehicle id="-flow-random-route-b9a851d0-1291-4267-b143-90c4d8a0a98d-286261874644848173-29-0.2" type="actor-car--3268314881727865368" depart="240.00" departLane="0" departPos="97.81" departSpeed="max" arrivalLane="0" arrivalPos="75.07">
        <route edges="-gneE14 -gneE13 -gneE11 gneE12 gneE8 gneE9 gneE2 gneE11 gneE13 gneE14"/>
    </vehicle>
    <vehicle id="-flow-random-route-be5f3917-3947-43e1-b542-d021d3858dcf-286261874644848173-22-0.2" type="actor-car--3268314881727865368" depart="240.00" departLane="0" departPos="68.23" departSpeed="max" arrivalLane="0" arrivalPos="4.65">
        <route edges="gneE12 gneE8 gneE9"/>
    </vehicle>
    <vehicle id="-flow-random-route-e74adcdd-9edf-4115-b5be-e4d19907203d-286261874644848173-11-0.2" type="actor-car--3268314881727865368" depart="240.00" departLane="0" departPos="35.79" departSpeed="max" arrivalLane="0" arrivalPos="61.44">
        <route edges="-gneE15 -gneE14 -gneE13 -gneE11 gneE12"/>
    </vehicle>