<?xml version="1.0" encoding="UTF-8"?>

<!-- generated on Fri Sep 18 07:30:19 2020 by Eclipse SUMO duarouter Version 1.6.0
<configuration xmlns:xsi="http://www.w3.org/2001/XMLSchema-instance" xsi:noNamespaceSchemaLocation="http://sumo.dlr.de/xsd/duarouterConfiguration.xsd">

    <input>
        <net-file value="dataset_public/roundabout_loop/roundabout_b/map.net.xml"/>
        <route-files value="/tmp/tmpy3x4_lr0/trips.trips.xml"/>
    </input>

    <output>
        <output-file value="dataset_public/roundabout_loop/roundabout_b/traffic/30_patient_car.rou.xml"/>
        <alternatives-output value="dataset_public/roundabout_loop/roundabout_b/traffic/30_patient_car.rou.alt.xml"/>
    </output>

    <processing>
        <unsorted-input value="true"/>
        <repair value="true"/>
    </processing>

    <report>
        <error-log value="/tmp/smarts/_duarouter_routing/traffic/30_patient_car.log"/>
        <no-step-log value="true"/>
    </report>

    <random_number>
        <seed value="42"/>
    </random_number>

</configuration>
-->

<routes xmlns:xsi="http://www.w3.org/2001/XMLSchema-instance" xsi:noNamespaceSchemaLocation="http://sumo.dlr.de/xsd/routes_file.xsd">
    <vType id="actor-car--3865507764011484748" minGap="2.50" speedFactor="normc(0.50,0.20,0.20,2.00)" vClass="passenger" impatience="0.50" lcCooperative="0.5" lcImpatience="0" jmDriveAfterYellowTime="1.0" accel="2.6" decel="4.5" sigma="0.5"/>
    <vehicle id="-flow-random-route-034af9ab-e591-40d4-865e-68c9df681fea-4388296411767521899-2-0.0" type="actor-car--3865507764011484748" depart="0.00" departLane="0" departPos="40.61" departSpeed="max" arrivalLane="1" arrivalPos="26.83">
        <route edges="edge-east-EN edge-north-NW"/>
    </vehicle>
    <vehicle id="-flow-random-route-1253f1aa-be10-4aa4-bb50-8c96ccd1f17c-4388296411767521899-22-0.0" type="actor-car--3865507764011484748" depart="0.00" departLane="0" departPos="89.20" departSpeed="max" arrivalLane="0" arrivalPos="4.18">
        <route edges="-gneE48 -gneE37 -gneE36"/>
    </vehicle>
    <vehicle id="-flow-random-route-1655d2d2-a7af-4814-8535-9bb2f6509e63-4388296411767521899-0-0.0" type="actor-car--3865507764011484748" depart="0.00" departLane="1" departPos="59.44" departSpeed="max" arrivalLane="1" arrivalPos="8.71">
        <route edges="edge-north-NW gneE41 gneE42 gneE51 -gneE48 -gneE37 -gneE36 edge-north-NW edge-west-WS edge-south-SE"/>
    </vehicle>
    <vehicle id="-flow-random-route-1708435f-8908-4584-9092-9278ecdd2778-4388296411767521899-12-0.0" type="actor-car--3865507764011484748" depart="0.00" departLane="0" departPos="70.18" departSpeed="max" arrivalLane="0" arrivalPos="17.32">
        <route edges="-gneE48 -gneE37 -gneE36"/>
    </vehicle>
    <vehicle id="-flow-random-route-19bef7f4-e295-4e2e-9172-71e139034093-4388296411767521899-25-0.0" type="actor-car--3865507764011484748" depart="0.00" departLane="0" departPos="8.62" departSpeed="max" arrivalLane="1" arrivalPos="65.00">
        <route edges="gneE41 gneE42 gneE51 -gneE48 -gneE37 -gneE36 edge-north-NW edge-west-WS edge-south-SE edge-east-EN"/>
    </vehicle>
    <vehicle id="-flow-random-route-1f73267c-1712-48f2-9fa0-b0e2dcedbeed-4388296411767521899-15-0.0" type="actor-car--3865507764011484748" depart="0.00" departLane="0" departPos="50.79" departSpeed="max" arrivalLane="0" arrivalPos="47.09">
        <route edges="gneE42 gneE51 -gneE48"/>
    </vehicle>
    <vehicle id="-flow-random-route-2c53827b-f10f-4cc3-abb4-2d42481191e2-4388296411767521899-17-0.0" type="actor-car--3865507764011484748" depart="0.00" departLane="0" departPos="43.54" departSpeed="max" arrivalLane="1" arrivalPos="4.28">
        <route edges="edge-east-EN edge-north-NW gneE41"/>
    </vehicle>
    <vehicle id="-flow-random-route-3abef276-95c9-4991-9677-23e0e2f464ed-4388296411767521899-3-0.0" type="actor-car--3865507764011484748" depart="0.00" departLane="0" departPos="6.16" departSpeed="max" arrivalLane="1" arrivalPos="53.83">
        <route edges="edge-south-SE edge-east-EN"/>
    </vehicle>
    <vehicle id="-flow-random-route-4728bdf5-4422-40da-810f-fe1be158e67a-4388296411767521899-4-0.0" type="actor-car--3865507764011484748" depart="0.00" departLane="0" departPos="166.20" departSpeed="max" arrivalLane="0" arrivalPos="38.25">
        <route edges="-gneE37 -gneE36 edge-north-NW"/>
    </vehicle>
    <vehicle id="-flow-random-route-5c7df85f-a85b-4ce6-8784-60403b2833ab-4388296411767521899-18-0.0" type="actor-car--3865507764011484748" depart="0.00" departLane="0" departPos="82.61" departSpeed="max" arrivalLane="0" arrivalPos="74.88">
        <route edges="gneE37 gneE48"/>
    </vehicle>
    <vehicle id="-flow-random-route-60a6457f-44c3-4b1e-a5af-8dabcf5b5690-4388296411767521899-13-0.0" type="actor-car--3865507764011484748" depart="0.00" departLane="0" departPos="32.39" departSpeed="max" arrivalLane="1" arrivalPos="6.29">
        <route edges="-gneE37 -gneE36 edge-north-NW edge-west-WS edge-south-SE edge-east-EN gneE36 gneE37 gneE48 gneE53"/>
    </vehicle>
    <vehicle id="-flow-random-route-64551650-b607-4cbd-8a76-95ff0c2fafb5-4388296411767521899-23-0.0" type="actor-car--3865507764011484748" depart="0.00" departLane="0" departPos="80.70" departSpeed="max" arrivalLane="0" arrivalPos="0.18">
        <route edges="-gneE37 -gneE36 edge-north-NW edge-west-WS edge-south-SE edge-east-EN edge-north-NW gneE41 gneE42 gneE51"/>
    </vehicle>
    <vehicle id="-flow-random-route-692a2490-bf8e-445d-bb54-b58c89421959-4388296411767521899-19-0.0" type="actor-car--3865507764011484748" depart="0.00" departLane="0" departPos="61.54" departSpeed="max" arrivalLane="1" arrivalPos="66.39">
        <route edges="-gneE48 -gneE37 -gneE36 edge-north-NW edge-west-WS edge-south-SE edge-east-EN edge-north-NW gneE41 gneE42"/>
    </vehicle>
    <vehicle id="-flow-random-route-7abaf687-5ef7-44f1-b68d-3d43ad933766-4388296411767521899-11-0.0" type="actor-car--3865507764011484748" depart="0.00" departLane="1" departPos="81.61" departSpeed="max" arrivalLane="0" arrivalPos="26.98">
        <route edges="gneE14 gneE13 edge-south-SE edge-east-EN edge-north-NW gneE41 gneE42 gneE51 -gneE48 -gneE37"/>
    </vehicle>
    <vehicle id="-flow-random-route-87fa8abc-8348-44da-9520-7ec7518ecda2-4388296411767521899-26-0.0" type="actor-car--3865507764011484748" depart="0.00" departLane="1" departPos="12.16" departSpeed="max" arrivalLane="0" arrivalPos="77.64">
        <route edges="gneE51 -gneE48 -gneE37"/>
    </vehicle>
    <vehicle id="-flow-random-route-8a3d11e1-609d-4442-a661-63fbbf282318-4388296411767521899-1-0.0" type="actor-car--3865507764011484748" depart="0.00" departLane="0" departPos="16.73" departSpeed="max" arrivalLane="0" arrivalPos="13.09">
        <route edges="-gneE36 edge-north-NW edge-west-WS edge-south-SE edge-east-EN edge-north-NW edge-west-WS edge-south-SE edge-east-EN gneE36"/>
    </vehicle>
    <vehicle id="-flow-random-route-8bffbec9-de9d-48c4-8410-bf14117325f4-4388296411767521899-27-0.0" type="actor-car--3865507764011484748" depart="0.00" departLane="0" departPos="5.17" departSpeed="max" arrivalLane="1" arrivalPos="18.89">
        <route edges="-gneE36 edge-north-NW gneE41 gneE42 gneE51 -gneE48 -gneE37 -gneE36 edge-north-NW edge-west-WS"/>
    </vehicle>
    <vehicle id="-flow-random-route-99dabd8f-7fa5-4eff-a0be-6e023ced9c5b-4388296411767521899-14-0.0" type="actor-car--3865507764011484748" depart="0.00" departLane="0" departPos="59.30" departSpeed="max" arrivalLane="0" arrivalPos="45.06">
        <route edges="edge-east-EN gneE36 gneE37 gneE48 gneE53 gneE14 gneE13 edge-south-SE edge-east-EN edge-north-NW"/>
    </vehicle>
    <vehicle id="-flow-random-route-a6dd31d5-5eb4-46d7-b214-a53c7ed5c2e3-4388296411767521899-6-0.0" type="actor-car--3865507764011484748" depart="0.00" departLane="1" departPos="55.00" departSpeed="max" arrivalLane="1" arrivalPos="40.41">
        <route edges="edge-east-EN gneE36 gneE37 gneE48 gneE53 gneE14 gneE13 edge-south-SE edge-east-EN edge-north-NW"/>
    </vehicle>
    <vehicle id="-flow-random-route-ad9f8040-2020-447c-a5be-aa4071aa5992-4388296411767521899-8-0.0" type="actor-car--3865507764011484748" depart="0.00" departLane="0" departPos="12.69" departSpeed="max" arrivalLane="1" arrivalPos="56.78">
        <route edges="gneE37 gneE48 gneE53 gneE14 gneE13 edge-south-SE edge-east-EN edge-north-NW gneE41 gneE42"/>
    </vehicle>
    <vehicle id="-flow-random-route-afdd0c3a-a128-4abb-8be0-9d376d8dc226-4388296411767521899-28-0.0" type="actor-car--3865507764011484748" depart="0.00" departLane="1" departPos="17.76" departSpeed="max" arrivalLane="0" arrivalPos="95.19">
        <route edges="gneE13 edge-south-SE edge-east-EN edge-north-NW edge-west-WS edge-south-SE edge-east-EN gneE36 gneE37 gneE48"/>
    </vehicle>
    <vehicle id="-flow-random-route-b0f6c1f2-a9f3-4575-996d-2a00d5d4139b-4388296411767521899-16-0.0" type="actor-car--3865507764011484748" depart="0.00" departLane="1" departPos="34.35" departSpeed="max" arrivalLane="0" arrivalPos="82.43">
        <route edges="gneE14 gneE13 edge-south-SE edge-east-EN edge-north-NW gneE41 gneE42 gneE51 -gneE48 -gneE37"/>
    </vehicle>
    <vehicle id="-flow-random-route-b0fc8a58-0206-4aa8-8bd8-f37971b696bd-4388296411767521899-29-0.0" type="actor-car--3865507764011484748" depart="0.00" departLane="0" departPos="10.65" departSpeed="max" arrivalLane="1" arrivalPos="6.38">
        <route edges="gneE48 gneE53 gneE14 gneE13 edge-south-SE edge-east-EN"/>
    </vehicle>
    <vehicle id="-flow-random-route-bbff6d33-a5da-49a6-b7c6-8b0b28d2da9f-4388296411767521899-9-0.0" type="actor-car--3865507764011484748" depart="0.00" departLane="1" departPos="52.92" departSpeed="max" arrivalLane="0" arrivalPos="25.87">
        <route edges="edge-east-EN edge-north-NW edge-west-WS edge-south-SE edge-east-EN gneE36 gneE37 gneE48 gneE53 gneE14"/>
    </vehicle>
    <vehicle id="-flow-random-route-c5077da1-2714-426d-9d21-c349bbfd0a7b-4388296411767521899-10-0.0" type="actor-car--3865507764011484748" depart="0.00" departLane="0" departPos="57.03" departSpeed="max" arrivalLane="0" arrivalPos="37.00">
        <route edges="gneE13 edge-south-SE"/>
    </vehicle>
    <vehicle id="-flow-random-route-d411af08-e1fa-4761-881b-05cd1099b6a2-4388296411767521899-21-0.0" type="actor-car--3865507764011484748" depart="0.00" departLane="0" departPos="14.71" departSpeed="max" arrivalLane="0" arrivalPos="49.42">
        <route edges="-gneE36 edge-north-NW"/>
    </vehicle>
    <vehicle id="-flow-random-route-e92eb9d9-f0d0-4288-a180-55cd70b72fc0-4388296411767521899-5-0.0" type="actor-car--3865507764011484748" depart="0.00" departLane="0" departPos="65.67" departSpeed="max" arrivalLane="0" arrivalPos="53.11">
        <route edges="gneE37 gneE48"/>
    </vehicle>
    <vehicle id="-flow-random-route-ec5e88f2-ee67-44e3-b9e2-063c5db0a3c2-4388296411767521899-20-0.0" type="actor-car--3865507764011484748" depart="0.00" departLane="0" departPos="49.00" departSpeed="max" arrivalLane="0" arrivalPos="37.23">
        <route edges="gneE14 gneE13"/>
    </vehicle>
    <vehicle id="-flow-random-route-efdff5ff-c888-44b8-ac5e-b07f042c979f-4388296411767521899-7-0.0" type="actor-car--3865507764011484748" depart="0.00" departLane="0" departPos="40.41" departSpeed="max" arrivalLane="0" arrivalPos="38.44">
        <route edges="gneE13 edge-south-SE"/>
    </vehicle>
    <vehicle id="-flow-random-route-f2240943-57eb-41ca-ae98-d1603aa8bbc6-4388296411767521899-24-0.0" type="actor-car--3865507764011484748" depart="0.00" departLane="1" departPos="53.49" departSpeed="max" arrivalLane="0" arrivalPos="99.01">
        <route edges="gneE14 gneE13 edge-south-SE edge-east-EN edge-north-NW gneE41 gneE42 gneE51 -gneE48 -gneE37"/>
    </vehicle>
    <vehicle id="-flow-random-route-034af9ab-e591-40d4-865e-68c9df681fea-4388296411767521899-2-0.1" type="actor-car--3865507764011484748" depart="120.00" departLane="0" departPos="40.61" departSpeed="max" arrivalLane="1" arrivalPos="26.83">
        <route edges="edge-east-EN edge-north-NW"/>
    </vehicle>
    <vehicle id="-flow-random-route-1253f1aa-be10-4aa4-bb50-8c96ccd1f17c-4388296411767521899-22-0.1" type="actor-car--3865507764011484748" depart="120.00" departLane="0" departPos="89.20" departSpeed="max" arrivalLane="0" arrivalPos="4.18">
        <route edges="-gneE48 -gneE37 -gneE36"/>
    </vehicle>
    <vehicle id="-flow-random-route-1655d2d2-a7af-4814-8535-9bb2f6509e63-4388296411767521899-0-0.1" type="actor-car--3865507764011484748" depart="120.00" departLane="1" departPos="59.44" departSpeed="max" arrivalLane="1" arrivalPos="8.71">
        <route edges="edge-north-NW gneE41 gneE42 gneE51 -gneE48 -gneE37 -gneE36 edge-north-NW edge-west-WS edge-south-SE"/>
    </vehicle>
    <vehicle id="-flow-random-route-1708435f-8908-4584-9092-9278ecdd2778-4388296411767521899-12-0.1" type="actor-car--3865507764011484748" depart="120.00" departLane="0" departPos="70.18" departSpeed="max" arrivalLane="0" arrivalPos="17.32">
        <route edges="-gneE48 -gneE37 -gneE36"/>
    </vehicle>
    <vehicle id="-flow-random-route-19bef7f4-e295-4e2e-9172-71e139034093-4388296411767521899-25-0.1" type="actor-car--3865507764011484748" depart="120.00" departLane="0" departPos="8.62" departSpeed="max" arrivalLane="1" arrivalPos="65.00">
        <route edges="gneE41 gneE42 gneE51 -gneE48 -gneE37 -gneE36 edge-north-NW edge-west-WS edge-south-SE edge-east-EN"/>
    </vehicle>
    <vehicle id="-flow-random-route-1f73267c-1712-48f2-9fa0-b0e2dcedbeed-4388296411767521899-15-0.1" type="actor-car--3865507764011484748" depart="120.00" departLane="0" departPos="50.79" departSpeed="max" arrivalLane="0" arrivalPos="47.09">
        <route edges="gneE42 gneE51 -gneE48"/>
    </vehicle>
    <vehicle id="-flow-random-route-2c53827b-f10f-4cc3-abb4-2d42481191e2-4388296411767521899-17-0.1" type="actor-car--3865507764011484748" depart="120.00" departLane="0" departPos="43.54" departSpeed="max" arrivalLane="1" arrivalPos="4.28">
        <route edges="edge-east-EN edge-north-NW gneE41"/>
    </vehicle>
    <vehicle id="-flow-random-route-3abef276-95c9-4991-9677-23e0e2f464ed-4388296411767521899-3-0.1" type="actor-car--3865507764011484748" depart="120.00" departLane="0" departPos="6.16" departSpeed="max" arrivalLane="1" arrivalPos="53.83">
        <route edges="edge-south-SE edge-east-EN"/>
    </vehicle>
    <vehicle id="-flow-random-route-4728bdf5-4422-40da-810f-fe1be158e67a-4388296411767521899-4-0.1" type="actor-car--3865507764011484748" depart="120.00" departLane="0" departPos="166.20" departSpeed="max" arrivalLane="0" arrivalPos="38.25">
        <route edges="-gneE37 -gneE36 edge-north-NW"/>
    </vehicle>
    <vehicle id="-flow-random-route-5c7df85f-a85b-4ce6-8784-60403b2833ab-4388296411767521899-18-0.1" type="actor-car--3865507764011484748" depart="120.00" departLane="0" departPos="82.61" departSpeed="max" arrivalLane="0" arrivalPos="74.88">
        <route edges="gneE37 gneE48"/>
    </vehicle>
    <vehicle id="-flow-random-route-60a6457f-44c3-4b1e-a5af-8dabcf5b5690-4388296411767521899-13-0.1" type="actor-car--3865507764011484748" depart="120.00" departLane="0" departPos="32.39" departSpeed="max" arrivalLane="1" arrivalPos="6.29">
        <route edges="-gneE37 -gneE36 edge-north-NW edge-west-WS edge-south-SE edge-east-EN gneE36 gneE37 gneE48 gneE53"/>
    </vehicle>
    <vehicle id="-flow-random-route-64551650-b607-4cbd-8a76-95ff0c2fafb5-4388296411767521899-23-0.1" type="actor-car--3865507764011484748" depart="120.00" departLane="0" departPos="80.70" departSpeed="max" arrivalLane="0" arrivalPos="0.18">
        <route edges="-gneE37 -gneE36 edge-north-NW edge-west-WS edge-south-SE edge-east-EN edge-north-NW gneE41 gneE42 gneE51"/>
    </vehicle>
    <vehicle id="-flow-random-route-692a2490-bf8e-445d-bb54-b58c89421959-4388296411767521899-19-0.1" type="actor-car--3865507764011484748" depart="120.00" departLane="0" departPos="61.54" departSpeed="max" arrivalLane="1" arrivalPos="66.39">
        <route edges="-gneE48 -gneE37 -gneE36 edge-north-NW edge-west-WS edge-south-SE edge-east-EN edge-north-NW gneE41 gneE42"/>
    </vehicle>
    <vehicle id="-flow-random-route-7abaf687-5ef7-44f1-b68d-3d43ad933766-4388296411767521899-11-0.1" type="actor-car--3865507764011484748" depart="120.00" departLane="1" departPos="81.61" departSpeed="max" arrivalLane="0" arrivalPos="26.98">
        <route edges="gneE14 gneE13 edge-south-SE edge-east-EN edge-north-NW gneE41 gneE42 gneE51 -gneE48 -gneE37"/>
    </vehicle>
    <vehicle id="-flow-random-route-87fa8abc-8348-44da-9520-7ec7518ecda2-4388296411767521899-26-0.1" type="actor-car--3865507764011484748" depart="120.00" departLane="1" departPos="12.16" departSpeed="max" arrivalLane="0" arrivalPos="77.64">
        <route edges="gneE51 -gneE48 -gneE37"/>
    </vehicle>
    <vehicle id="-flow-random-route-8a3d11e1-609d-4442-a661-63fbbf282318-4388296411767521899-1-0.1" type="actor-car--3865507764011484748" depart="120.00" departLane="0" departPos="16.73" departSpeed="max" arrivalLane="0" arrivalPos="13.09">
        <route edges="-gneE36 edge-north-NW edge-west-WS edge-south-SE edge-east-EN edge-north-NW edge-west-WS edge-south-SE edge-east-EN gneE36"/>
    </vehicle>
    <vehicle id="-flow-random-route-8bffbec9-de9d-48c4-8410-bf14117325f4-4388296411767521899-27-0.1" type="actor-car--3865507764011484748" depart="120.00" departLane="0" departPos="5.17" departSpeed="max" arrivalLane="1" arrivalPos="18.89">
        <route edges="-gneE36 edge-north-NW gneE41 gneE42 gneE51 -gneE48 -gneE37 -gneE36 edge-north-NW edge-west-WS"/>
    </vehicle>
    <vehicle id="-flow-random-route-99dabd8f-7fa5-4eff-a0be-6e023ced9c5b-4388296411767521899-14-0.1" type="actor-car--3865507764011484748" depart="120.00" departLane="0" departPos="59.30" departSpeed="max" arrivalLane="0" arrivalPos="45.06">
        <route edges="edge-east-EN gneE36 gneE37 gneE48 gneE53 gneE14 gneE13 edge-south-SE edge-east-EN edge-north-NW"/>
    </vehicle>
    <vehicle id="-flow-random-route-a6dd31d5-5eb4-46d7-b214-a53c7ed5c2e3-4388296411767521899-6-0.1" type="actor-car--3865507764011484748" depart="120.00" departLane="1" departPos="55.00" departSpeed="max" arrivalLane="1" arrivalPos="40.41">
        <route edges="edge-east-EN gneE36 gneE37 gneE48 gneE53 gneE14 gneE13 edge-south-SE edge-east-EN edge-north-NW"/>
    </vehicle>
    <vehicle id="-flow-random-route-ad9f8040-2020-447c-a5be-aa4071aa5992-4388296411767521899-8-0.1" type="actor-car--3865507764011484748" depart="120.00" departLane="0" departPos="12.69" departSpeed="max" arrivalLane="1" arrivalPos="56.78">
        <route edges="gneE37 gneE48 gneE53 gneE14 gneE13 edge-south-SE edge-east-EN edge-north-NW gneE41 gneE42"/>
    </vehicle>
    <vehicle id="-flow-random-route-afdd0c3a-a128-4abb-8be0-9d376d8dc226-4388296411767521899-28-0.1" type="actor-car--3865507764011484748" depart="120.00" departLane="1" departPos="17.76" departSpeed="max" arrivalLane="0" arrivalPos="95.19">
        <route edges="gneE13 edge-south-SE edge-east-EN edge-north-NW edge-west-WS edge-south-SE edge-east-EN gneE36 gneE37 gneE48"/>
    </vehicle>
    <vehicle id="-flow-random-route-b0f6c1f2-a9f3-4575-996d-2a00d5d4139b-4388296411767521899-16-0.1" type="actor-car--3865507764011484748" depart="120.00" departLane="1" departPos="34.35" departSpeed="max" arrivalLane="0" arrivalPos="82.43">
        <route edges="gneE14 gneE13 edge-south-SE edge-east-EN edge-north-NW gneE41 gneE42 gneE51 -gneE48 -gneE37"/>
    </vehicle>
    <vehicle id="-flow-random-route-b0fc8a58-0206-4aa8-8bd8-f37971b696bd-4388296411767521899-29-0.1" type="actor-car--3865507764011484748" depart="120.00" departLane="0" departPos="10.65" departSpeed="max" arrivalLane="1" arrivalPos="6.38">
        <route edges="gneE48 gneE53 gneE14 gneE13 edge-south-SE edge-east-EN"/>
    </vehicle>
    <vehicle id="-flow-random-route-bbff6d33-a5da-49a6-b7c6-8b0b28d2da9f-4388296411767521899-9-0.1" type="actor-car--3865507764011484748" depart="120.00" departLane="1" departPos="52.92" departSpeed="max" arrivalLane="0" arrivalPos="25.87">
        <route edges="edge-east-EN edge-north-NW edge-west-WS edge-south-SE edge-east-EN gneE36 gneE37 gneE48 gneE53 gneE14"/>
    </vehicle>
    <vehicle id="-flow-random-route-c5077da1-2714-426d-9d21-c349bbfd0a7b-4388296411767521899-10-0.1" type="actor-car--3865507764011484748" depart="120.00" departLane="0" departPos="57.03" departSpeed="max" arrivalLane="0" arrivalPos="37.00">
        <route edges="gneE13 edge-south-SE"/>
    </vehicle>
    <vehicle id="-flow-random-route-d411af08-e1fa-4761-881b-05cd1099b6a2-4388296411767521899-21-0.1" type="actor-car--3865507764011484748" depart="120.00" departLane="0" departPos="14.71" departSpeed="max" arrivalLane="0" arrivalPos="49.42">
        <route edges="-gneE36 edge-north-NW"/>
    </vehicle>
    <vehicle id="-flow-random-route-e92eb9d9-f0d0-4288-a180-55cd70b72fc0-4388296411767521899-5-0.1" type="actor-car--3865507764011484748" depart="120.00" departLane="0" departPos="65.67" departSpeed="max" arrivalLane="0" arrivalPos="53.11">
        <route edges="gneE37 gneE48"/>
    </vehicle>
    <vehicle id="-flow-random-route-ec5e88f2-ee67-44e3-b9e2-063c5db0a3c2-4388296411767521899-20-0.1" type="actor-car--3865507764011484748" depart="120.00" departLane="0" departPos="49.00" departSpeed="max" arrivalLane="0" arrivalPos="37.23">
        <route edges="gneE14 gneE13"/>
    </vehicle>
    <vehicle id="-flow-random-route-efdff5ff-c888-44b8-ac5e-b07f042c979f-4388296411767521899-7-0.1" type="actor-car--3865507764011484748" depart="120.00" departLane="0" departPos="40.41" departSpeed="max" arrivalLane="0" arrivalPos="38.44">
        <route edges="gneE13 edge-south-SE"/>
    </vehicle>
    <vehicle id="-flow-random-route-f2240943-57eb-41ca-ae98-d1603aa8bbc6-4388296411767521899-24-0.1" type="actor-car--3865507764011484748" depart="120.00" departLane="1" departPos="53.49" departSpeed="max" arrivalLane="0" arrivalPos="99.01">
        <route edges="gneE14 gneE13 edge-south-SE edge-east-EN edge-north-NW gneE41 gneE42 gneE51 -gneE48 -gneE37"/>
    </vehicle>
    <vehicle id="-flow-random-route-034af9ab-e591-40d4-865e-68c9df681fea-4388296411767521899-2-0.2" type="actor-car--3865507764011484748" depart="240.00" departLane="0" departPos="40.61" departSpeed="max" arrivalLane="1" arrivalPos="26.83">
        <route edges="edge-east-EN edge-north-NW"/>
    </vehicle>
    <vehicle id="-flow-random-route-1253f1aa-be10-4aa4-bb50-8c96ccd1f17c-4388296411767521899-22-0.2" type="actor-car--3865507764011484748" depart="240.00" departLane="0" departPos="89.20" departSpeed="max" arrivalLane="0" arrivalPos="4.18">
        <route edges="-gneE48 -gneE37 -gneE36"/>
    </vehicle>
    <vehicle id="-flow-random-route-1655d2d2-a7af-4814-8535-9bb2f6509e63-4388296411767521899-0-0.2" type="actor-car--3865507764011484748" depart="240.00" departLane="1" departPos="59.44" departSpeed="max" arrivalLane="1" arrivalPos="8.71">
        <route edges="edge-north-NW gneE41 gneE42 gneE51 -gneE48 -gneE37 -gneE36 edge-north-NW edge-west-WS edge-south-SE"/>
    </vehicle>
    <vehicle id="-flow-random-route-1708435f-8908-4584-9092-9278ecdd2778-4388296411767521899-12-0.2" type="actor-car--3865507764011484748" depart="240.00" departLane="0" departPos="70.18" departSpeed="max" arrivalLane="0" arrivalPos="17.32">
        <route edges="-gneE48 -gneE37 -gneE36"/>
    </vehicle>
    <vehicle id="-flow-random-route-19bef7f4-e295-4e2e-9172-71e139034093-4388296411767521899-25-0.2" type="actor-car--3865507764011484748" depart="240.00" departLane="0" departPos="8.62" departSpeed="max" arrivalLane="1" arrivalPos="65.00">
        <route edges="gneE41 gneE42 gneE51 -gneE48 -gneE37 -gneE36 edge-north-NW edge-west-WS edge-south-SE edge-east-EN"/>
    </vehicle>
    <vehicle id="-flow-random-route-1f73267c-1712-48f2-9fa0-b0e2dcedbeed-4388296411767521899-15-0.2" type="actor-car--3865507764011484748" depart="240.00" departLane="0" departPos="50.79" departSpeed="max" arrivalLane="0" arrivalPos="47.09">
        <route edges="gneE42 gneE51 -gneE48"/>
    </vehicle>
    <vehicle id="-flow-random-route-2c53827b-f10f-4cc3-abb4-2d42481191e2-4388296411767521899-17-0.2" type="actor-car--3865507764011484748" depart="240.00" departLane="0" departPos="43.54" departSpeed="max" arrivalLane="1" arrivalPos="4.28">
        <route edges="edge-east-EN edge-north-NW gneE41"/>
    </vehicle>
    <vehicle id="-flow-random-route-3abef276-95c9-4991-9677-23e0e2f464ed-4388296411767521899-3-0.2" type="actor-car--3865507764011484748" depart="240.00" departLane="0" departPos="6.16" departSpeed="max" arrivalLane="1" arrivalPos="53.83">
        <route edges="edge-south-SE edge-east-EN"/>
    </vehicle>
    <vehicle id="-flow-random-route-4728bdf5-4422-40da-810f-fe1be158e67a-4388296411767521899-4-0.2" type="actor-car--3865507764011484748" depart="240.00" departLane="0" departPos="166.20" departSpeed="max" arrivalLane="0" arrivalPos="38.25">
        <route edges="-gneE37 -gneE36 edge-north-NW"/>
    </vehicle>
    <vehicle id="-flow-random-route-5c7df85f-a85b-4ce6-8784-60403b2833ab-4388296411767521899-18-0.2" type="actor-car--3865507764011484748" depart="240.00" departLane="0" departPos="82.61" departSpeed="max" arrivalLane="0" arrivalPos="74.88">
        <route edges="gneE37 gneE48"/>
    </vehicle>
    <vehicle id="-flow-random-route-60a6457f-44c3-4b1e-a5af-8dabcf5b5690-4388296411767521899-13-0.2" type="actor-car--3865507764011484748" depart="240.00" departLane="0" departPos="32.39" departSpeed="max" arrivalLane="1" arrivalPos="6.29">
        <route edges="-gneE37 -gneE36 edge-north-NW edge-west-WS edge-south-SE edge-east-EN gneE36 gneE37 gneE48 gneE53"/>
    </vehicle>
    <vehicle id="-flow-random-route-64551650-b607-4cbd-8a76-95ff0c2fafb5-4388296411767521899-23-0.2" type="actor-car--3865507764011484748" depart="240.00" departLane="0" departPos="80.70" departSpeed="max" arrivalLane="0" arrivalPos="0.18">
        <route edges="-gneE37 -gneE36 edge-north-NW edge-west-WS edge-south-SE edge-east-EN edge-north-NW gneE41 gneE42 gneE51"/>
    </vehicle>
    <vehicle id="-flow-random-route-692a2490-bf8e-445d-bb54-b58c89421959-4388296411767521899-19-0.2" type="actor-car--3865507764011484748" depart="240.00" departLane="0" departPos="61.54" departSpeed="max" arrivalLane="1" arrivalPos="66.39">
        <route edges="-gneE48 -gneE37 -gneE36 edge-north-NW edge-west-WS edge-south-SE edge-east-EN edge-north-NW gneE41 gneE42"/>
    </vehicle>
    <vehicle id="-flow-random-route-7abaf687-5ef7-44f1-b68d-3d43ad933766-4388296411767521899-11-0.2" type="actor-car--3865507764011484748" depart="240.00" departLane="1" departPos="81.61" departSpeed="max" arrivalLane="0" arrivalPos="26.98">
        <route edges="gneE14 gneE13 edge-south-SE edge-east-EN edge-north-NW gneE41 gneE42 gneE51 -gneE48 -gneE37"/>
    </vehicle>
    <vehicle id="-flow-random-route-87fa8abc-8348-44da-9520-7ec7518ecda2-4388296411767521899-26-0.2" type="actor-car--3865507764011484748" depart="240.00" departLane="1" departPos="12.16" departSpeed="max" arrivalLane="0" arrivalPos="77.64">
        <route edges="gneE51 -gneE48 -gneE37"/>
    </vehicle>
    <vehicle id="-flow-random-route-8a3d11e1-609d-4442-a661-63fbbf282318-4388296411767521899-1-0.2" type="actor-car--3865507764011484748" depart="240.00" departLane="0" departPos="16.73" departSpeed="max" arrivalLane="0" arrivalPos="13.09">
        <route edges="-gneE36 edge-north-NW edge-west-WS edge-south-SE edge-east-EN edge-north-NW edge-west-WS edge-south-SE edge-east-EN gneE36"/>
    </vehicle>
    <vehicle id="-flow-random-route-8bffbec9-de9d-48c4-8410-bf14117325f4-4388296411767521899-27-0.2" type="actor-car--3865507764011484748" depart="240.00" departLane="0" departPos="5.17" departSpeed="max" arrivalLane="1" arrivalPos="18.89">
        <route edges="-gneE36 edge-north-NW gneE41 gneE42 gneE51 -gneE48 -gneE37 -gneE36 edge-north-NW edge-west-WS"/>
    </vehicle>
    <vehicle id="-flow-random-route-99dabd8f-7fa5-4eff-a0be-6e023ced9c5b-4388296411767521899-14-0.2" type="actor-car--3865507764011484748" depart="240.00" departLane="0" departPos="59.30" departSpeed="max" arrivalLane="0" arrivalPos="45.06">
        <route edges="edge-east-EN gneE36 gneE37 gneE48 gneE53 gneE14 gneE13 edge-south-SE edge-east-EN edge-north-NW"/>
    </vehicle>
    <vehicle id="-flow-random-route-a6dd31d5-5eb4-46d7-b214-a53c7ed5c2e3-4388296411767521899-6-0.2" type="actor-car--3865507764011484748" depart="240.00" departLane="1" departPos="55.00" departSpeed="max" arrivalLane="1" arrivalPos="40.41">
        <route edges="edge-east-EN gneE36 gneE37 gneE48 gneE53 gneE14 gneE13 edge-south-SE edge-east-EN edge-north-NW"/>
    </vehicle>
    <vehicle id="-flow-random-route-ad9f8040-2020-447c-a5be-aa4071aa5992-4388296411767521899-8-0.2" type="actor-car--3865507764011484748" depart="240.00" departLane="0" departPos="12.69" departSpeed="max" arrivalLane="1" arrivalPos="56.78">
        <route edges="gneE37 gneE48 gneE53 gneE14 gneE13 edge-south-SE edge-east-EN edge-north-NW gneE41 gneE42"/>
    </vehicle>
    <vehicle id="-flow-random-route-afdd0c3a-a128-4abb-8be0-9d376d8dc226-4388296411767521899-28-0.2" type="actor-car--3865507764011484748" depart="240.00" departLane="1" departPos="17.76" departSpeed="max" arrivalLane="0" arrivalPos="95.19">
        <route edges="gneE13 edge-south-SE edge-east-EN edge-north-NW edge-west-WS edge-south-SE edge-east-EN gneE36 gneE37 gneE48"/>
    </vehicle>
    <vehicle id="-flow-random-route-b0f6c1f2-a9f3-4575-996d-2a00d5d4139b-4388296411767521899-16-0.2" type="actor-car--3865507764011484748" depart="240.00" departLane="1" departPos="34.35" departSpeed="max" arrivalLane="0" arrivalPos="82.43">
        <route edges="gneE14 gneE13 edge-south-SE edge-east-EN edge-north-NW gneE41 gneE42 gneE51 -gneE48 -gneE37"/>
    </vehicle>
    <vehicle id="-flow-random-route-b0fc8a58-0206-4aa8-8bd8-f37971b696bd-4388296411767521899-29-0.2" type="actor-car--3865507764011484748" depart="240.00" departLane="0" departPos="10.65" departSpeed="max" arrivalLane="1" arrivalPos="6.38">