<?xml version="1.0" encoding="UTF-8"?>

<!-- generated on Sun Aug 30 13:07:48 2020 by Eclipse SUMO duarouter Version 1.6.0
<configuration xmlns:xsi="http://www.w3.org/2001/XMLSchema-instance" xsi:noNamespaceSchemaLocation="http://sumo.dlr.de/xsd/duarouterConfiguration.xsd">

    <input>
        <net-file value="../dataset_public/mixed_loop/roundabout_its_a/map.net.xml"/>
        <route-files value="/tmp/tmpjjrgg1gv/trips.trips.xml"/>
    </input>

    <output>
        <output-file value="../dataset_public/mixed_loop/roundabout_its_a/traffic/30_patient_car.rou.xml"/>
        <alternatives-output value="../dataset_public/mixed_loop/roundabout_its_a/traffic/30_patient_car.rou.alt.xml"/>
    </output>

    <processing>
        <unsorted-input value="true"/>
        <repair value="true"/>
    </processing>

    <report>
        <error-log value="/tmp/smarts/_duarouter_routing/traffic/30_patient_car.log"/>
        <no-step-log value="true"/>
    </report>

    <random_number>
        <seed value="42"/>
    </random_number>

</configuration>
-->

<routes xmlns:xsi="http://www.w3.org/2001/XMLSchema-instance" xsi:noNamespaceSchemaLocation="http://sumo.dlr.de/xsd/routes_file.xsd">
    <vType id="actor-car-9056821315843928452" minGap="2.50" speedFactor="normc(0.50,0.20,0.20,2.00)" vClass="passenger" impatience="0.50" lcCooperative="0.5" lcImpatience="0" jmDriveAfterYellowTime="1.0" accel="2.6" decel="4.5" sigma="0.5"/>
    <vehicle id="-flow-random-route-04bf26a0-4882-40f5-b072-6beed9287881--3834751800847900259-13-0.0" type="actor-car-9056821315843928452" depart="0.00" departLane="0" departPos="70.51" departSpeed="max" arrivalLane="0" arrivalPos="62.82">
        <route edges="-gneE94 -gneE93"/>
    </vehicle>
    <vehicle id="-flow-random-route-09eefaef-f3ee-4492-8943-b6ddde712540--3834751800847900259-10-0.0" type="actor-car-9056821315843928452" depart="0.00" departLane="0" departPos="49.50" departSpeed="max" arrivalLane="0" arrivalPos="81.65">
        <route edges="-gneE95 edge-north-NW -gneE92 -gneE91 -gneE94"/>
    </vehicle>
    <vehicle id="-flow-random-route-1f2d655b-f8c6-4263-a274-bd28f9bfa443--3834751800847900259-6-0.0" type="actor-car-9056821315843928452" depart="0.00" departLane="0" departPos="22.28" departSpeed="max" arrivalLane="0" arrivalPos="64.11">
        <route edges="gneE82 gneE93 gneE94 gneE91 gneE92 edge-west-WS"/>
    </vehicle>
    <vehicle id="-flow-random-route-3820bc8e-9a0b-4489-b4a8-ff63c1cde6c3--3834751800847900259-12-0.0" type="actor-car-9056821315843928452" depart="0.00" departLane="0" departPos="53.67" departSpeed="max" arrivalLane="1" arrivalPos="40.32">
        <route edges="-gneE91 -gneE94 -gneE93 -gneE82 -gneE81 edge-east-EN"/>
    </vehicle>
    <vehicle id="-flow-random-route-43086a48-16dd-4f0a-b90c-c313cdd34632--3834751800847900259-4-0.0" type="actor-car-9056821315843928452" depart="0.00" departLane="0" departPos="95.35" departSpeed="max" arrivalLane="0" arrivalPos="93.70">
        <route edges="-gneE91 -gneE94"/>
    </vehicle>
    <vehicle id="-flow-random-route-46509eb0-c8ec-43e2-8fee-73aae5e93798--3834751800847900259-8-0.0" type="actor-car-9056821315843928452" depart="0.00" departLane="0" departPos="6.90" departSpeed="max" arrivalLane="0" arrivalPos="16.24">
        <route edges="gneE81 gneE82 gneE93 -gneE95 edge-north-NW -gneE92 -gneE91 -gneE94 -gneE93 -gneE82"/>
    </vehicle>
    <vehicle id="-flow-random-route-546bca6b-50ef-40d4-b04e-2674dfe6f333--3834751800847900259-15-0.0" type="actor-car-9056821315843928452" depart="0.00" departLane="0" departPos="30.87" departSpeed="max" arrivalLane="0" arrivalPos="48.51">
        <route edges="edge-north-NW -gneE92 -gneE91 -gneE94 -gneE95 edge-north-NW edge-west-WS gneE96 gneE97 gneE98"/>
    </vehicle>
    <vehicle id="-flow-random-route-58c62763-e23c-439a-ae32-0446463e8e64--3834751800847900259-14-0.0" type="actor-car-9056821315843928452" depart="0.00" departLane="0" departPos="36.38" departSpeed="max" arrivalLane="0" arrivalPos="87.01">
        <route edges="-gneE91 -gneE94"/>
    </vehicle>
    <vehicle id="-flow-random-route-6d0041f9-9e24-4e90-a43c-45d7dd3688e9--3834751800847900259-2-0.0" type="actor-car-9056821315843928452" depart="0.00" departLane="1" departPos="20.84" departSpeed="max" arrivalLane="1" arrivalPos="39.52">
        <route edges="gneE96 gneE97 gneE98"/>
    </vehicle>
    <vehicle id="-flow-random-route-73afb930-0683-4b5f-8780-4ccb93bd4478--3834751800847900259-16-0.0" type="actor-car-9056821315843928452" depart="0.00" departLane="0" departPos="29.83" departSpeed="max" arrivalLane="0" arrivalPos="117.42">
        <route edges="edge-south-SE gneE81 gneE82 gneE93 gneE94 gneE91 gneE92 edge-west-WS gneE96 gneE97"/>
    </vehicle>
    <vehicle id="-flow-random-route-8679d4c8-347d-48fe-86d5-cdfc0ed0714a--3834751800847900259-23-0.0" type="actor-car-9056821315843928452" depart="0.00" departLane="1" departPos="9.87" departSpeed="max" arrivalLane="0" arrivalPos="70.42">
        <route edges="edge-north-NW edge-west-WS edge-south-SE gneE81 gneE82 gneE93 -gneE95 edge-north-NW -gneE92 -gneE91"/>
    </vehicle>
    <vehicle id="-flow-random-route-8b40e427-34d2-48a5-8c0e-88ba0b42ed08--3834751800847900259-19-0.0" type="actor-car-9056821315843928452" depart="0.00" departLane="0" departPos="40.48" departSpeed="max" arrivalLane="0" arrivalPos="12.69">
        <route edges="gneE91 gneE92 edge-west-WS gneE96 gneE97 gneE98 gneE93 -gneE95 edge-north-NW -gneE92"/>
    </vehicle>
    <vehicle id="-flow-random-route-935c2378-5027-4cb6-94c6-665bf1f07b97--3834751800847900259-27-0.0" type="actor-car-9056821315843928452" depart="0.00" departLane="0" departPos="71.04" departSpeed="max" arrivalLane="0" arrivalPos="42.44">
        <route edges="gneE98 gneE93 gneE94"/>
    </vehicle>
    <vehicle id="-flow-random-route-95836110-1874-46db-93e0-ab2f3d912c5d--3834751800847900259-17-0.0" type="actor-car-9056821315843928452" depart="0.00" departLane="1" departPos="15.43" departSpeed="max" arrivalLane="0" arrivalPos="47.80">
        <route edges="edge-east-EN gneE95 gneE94 gneE91 gneE92 edge-west-WS edge-south-SE edge-east-EN edge-north-NW -gneE92"/>
    </vehicle>
    <vehicle id="-flow-random-route-a713cf10-a037-4dcc-acc5-299042a13b78--3834751800847900259-20-0.0" type="actor-car-9056821315843928452" depart="0.00" departLane="0" departPos="65.31" departSpeed="max" arrivalLane="0" arrivalPos="33.60">
        <route edges="gneE95 -gneE93 -gneE82 -gneE81 edge-east-EN gneE95 gneE94 gneE91 gneE92 edge-west-WS"/>
    </vehicle>
    <vehicle id="-flow-random-route-aa1e33a7-90f1-4fae-95d6-f8800261394e--3834751800847900259-28-0.0" type="actor-car-9056821315843928452" depart="0.00" departLane="0" departPos="48.36" departSpeed="max" arrivalLane="0" arrivalPos="60.41">
        <route edges="gneE91 gneE92 edge-west-WS gneE96 gneE97 gneE98 -gneE82 -gneE81 edge-east-EN gneE95"/>
    </vehicle>
    <vehicle id="-flow-random-route-ac14d631-a3b7-4d9f-b2ab-ce905c9b8622--3834751800847900259-11-0.0" type="actor-car-9056821315843928452" depart="0.00" departLane="0" departPos="55.30" departSpeed="max" arrivalLane="0" arrivalPos="40.57">
        <route edges="edge-east-EN gneE95 -gneE93 -gneE82 -gneE81 edge-east-EN gneE95 gneE94 gneE91 gneE92"/>
    </vehicle>
    <vehicle id="-flow-random-route-b03f81b3-93bc-4948-bded-4701aa1b2275--3834751800847900259-3-0.0" type="actor-car-9056821315843928452" depart="0.00" departLane="0" departPos="88.80" departSpeed="max" arrivalLane="0" arrivalPos="24.10">
        <route edges="gneE97 gneE98 -gneE82 -gneE81 edge-east-EN gneE95 gneE94 gneE91 gneE92 edge-west-WS"/>
    </vehicle>
    <vehicle id="-flow-random-route-b8b0c7e3-6920-44bc-8b32-37d3ec67b3ca--3834751800847900259-0-0.0" type="actor-car-9056821315843928452" depart="0.00" departLane="0" departPos="12.00" departSpeed="max" arrivalLane="0" arrivalPos="2.18">
        <route edges="-gneE95 edge-north-NW edge-west-WS edge-south-SE gneE81 gneE82 gneE93 -gneE95 edge-north-NW -gneE92"/>
    </vehicle>
    <vehicle id="-flow-random-route-b8be2f6c-ee59-480c-9290-b287bbee6c60--3834751800847900259-22-0.0" type="actor-car-9056821315843928452" depart="0.00" departLane="0" departPos="27.93" departSpeed="max" arrivalLane="0" arrivalPos="5.24">
        <route edges="-gneE91 -gneE94"/>
    </vehicle>
    <vehicle id="-flow-random-route-ba4e4bec-b3f3-4c8c-b306-0c27916052a5--3834751800847900259-1-0.0" type="actor-car-9056821315843928452" depart="0.00" departLane="0" departPos="107.50" departSpeed="max" arrivalLane="0" arrivalPos="68.96">
        <route edges="gneE96 gneE97"/>
    </vehicle>
    <vehicle id="-flow-random-route-cf0daf98-4383-493a-9cf0-e07cf6448cd0--3834751800847900259-9-0.0" type="actor-car-9056821315843928452" depart="0.00" departLane="0" departPos="82.74" departSpeed="max" arrivalLane="0" arrivalPos="11.84">
        <route edges="gneE98 -gneE82"/>
    </vehicle>
    <vehicle id="-flow-random-route-dc63857f-7386-4d98-b0ca-36b404c3fe94--3834751800847900259-18-0.0" type="actor-car-9056821315843928452" depart="0.00" departLane="0" departPos="45.14" departSpeed="max" arrivalLane="0" arrivalPos="41.88">
        <route edges="gneE82 gneE93"/>
    </vehicle>
    <vehicle id="-flow-random-route-dcade253-5ac1-4558-a82b-fcd72776a21e--3834751800847900259-24-0.0" type="actor-car-9056821315843928452" depart="0.00" departLane="0" departPos="50.01" departSpeed="max" arrivalLane="0" arrivalPos="27.74">
        <route edges="-gneE92 -gneE91 -gneE94 -gneE95 edge-north-NW -gneE92 -gneE91 -gneE94 -gneE93 -gneE82"/>
    </vehicle>
    <vehicle id="-flow-random-route-de62050e-93c2-4899-8faf-0a4e944ecd9a--3834751800847900259-29-0.0" type="actor-car-9056821315843928452" depart="0.00" departLane="0" departPos="0.84" departSpeed="max" arrivalLane="0" arrivalPos="13.03">
        <route edges="gneE82 gneE93 -gneE95 edge-north-NW -gneE92"/>
    </vehicle>
    <vehicle id="-flow-random-route-e623e832-679b-4213-ab62-ec16de772073--3834751800847900259-26-0.0" type="actor-car-9056821315843928452" depart="0.00" departLane="0" departPos="22.06" departSpeed="max" arrivalLane="0" arrivalPos="23.91">
        <route edges="-gneE82 -gneE81 edge-east-EN gneE95 gneE94 gneE91 gneE92 edge-west-WS edge-south-SE gneE81"/>
    </vehicle>
    <vehicle id="-flow-random-route-e9ef83e3-6b41-4179-ae4c-135c5e75423b--3834751800847900259-5-0.0" type="actor-car-9056821315843928452" depart="0.00" departLane="0" departPos="25.55" departSpeed="max" arrivalLane="0" arrivalPos="81.07">
        <route edges="-gneE94 -gneE95 edge-north-NW edge-west-WS gneE96 gneE97 gneE98 gneE93 gneE94 gneE91"/>
    </vehicle>
    <vehicle id="-flow-random-route-f1c34568-6d1b-4d36-b7ff-fd3eb330b2d1--3834751800847900259-25-0.0" type="actor-car-9056821315843928452" depart="0.00" departLane="0" departPos="67.74" departSpeed="max" arrivalLane="0" arrivalPos="1.57">
        <route edges="gneE82 gneE93 -gneE95 edge-north-NW edge-west-WS gneE96 gneE97 gneE98 -gneE82 -gneE81"/>
    </vehicle>
    <vehicle id="-flow-random-route-f641bacd-7c15-4679-9ab7-0788dffc9056--3834751800847900259-7-0.0" type="actor-car-9056821315843928452" depart="0.00" departLane="0" departPos="42.41" departSpeed="max" arrivalLane="0" arrivalPos="14.36">
        <route edges="-gneE94 -gneE93 -gneE82 -gneE81 edge-east-EN edge-north-NW -gneE92 -gneE91 -gneE94 -gneE95"/>
    </vehicle>
    <vehicle id="-flow-random-route-fe07d854-6376-471b-86e3-e75632c1590e--3834751800847900259-21-0.0" type="actor-car-9056821315843928452" depart="0.00" departLane="1" departPos="12.47" departSpeed="max" arrivalLane="0" arrivalPos="47.16">
        <route edges="edge-east-EN edge-north-NW -gneE92 -gneE91 -gneE94 -gneE93 -gneE82 -gneE81 edge-east-EN gneE95"/>
    </vehicle>
    <vehicle id="-flow-random-route-04bf26a0-4882-40f5-b072-6beed9287881--3834751800847900259-13-0.1" type="actor-car-9056821315843928452" depart="120.00" departLane="0" departPos="70.51" departSpeed="max" arrivalLane="0" arrivalPos="62.82">
        <route edges="-gneE94 -gneE93"/>
    </vehicle>
    <vehicle id="-flow-random-route-09eefaef-f3ee-4492-8943-b6ddde712540--3834751800847900259-10-0.1" type="actor-car-9056821315843928452" depart="120.00" departLane="0" departPos="49.50" departSpeed="max" arrivalLane="0" arrivalPos="81.65">
        <route edges="-gneE95 edge-north-NW -gneE92 -gneE91 -gneE94"/>
    </vehicle>
    <vehicle id="-flow-random-route-1f2d655b-f8c6-4263-a274-bd28f9bfa443--3834751800847900259-6-0.1" type="actor-car-9056821315843928452" depart="120.00" departLane="0" departPos="22.28" departSpeed="max" arrivalLane="0" arrivalPos="64.11">
        <route edges="gneE82 gneE93 gneE94 gneE91 gneE92 edge-west-WS"/>
    </vehicle>
    <vehicle id="-flow-random-route-3820bc8e-9a0b-4489-b4a8-ff63c1cde6c3--3834751800847900259-12-0.1" type="actor-car-9056821315843928452" depart="120.00" departLane="0" departPos="53.67" departSpeed="max" arrivalLane="1" arrivalPos="40.32">
        <route edges="-gneE91 -gneE94 -gneE93 -gneE82 -gneE81 edge-east-EN"/>
    </vehicle>
    <vehicle id="-flow-random-route-43086a48-16dd-4f0a-b90c-c313cdd34632--3834751800847900259-4-0.1" type="actor-car-9056821315843928452" depart="120.00" departLane="0" departPos="95.35" departSpeed="max" arrivalLane="0" arrivalPos="93.70">
        <route edges="-gneE91 -gneE94"/>
    </vehicle>
    <vehicle id="-flow-random-route-46509eb0-c8ec-43e2-8fee-73aae5e93798--3834751800847900259-8-0.1" type="actor-car-9056821315843928452" depart="120.00" departLane="0" departPos="6.90" departSpeed="max" arrivalLane="0" arrivalPos="16.24">
        <route edges="gneE81 gneE82 gneE93 -gneE95 edge-north-NW -gneE92 -gneE91 -gneE94 -gneE93 -gneE82"/>
    </vehicle>
    <vehicle id="-flow-random-route-546bca6b-50ef-40d4-b04e-2674dfe6f333--3834751800847900259-15-0.1" type="actor-car-9056821315843928452" depart="120.00" departLane="0" departPos="30.87" departSpeed="max" arrivalLane="0" arrivalPos="48.51">
        <route edges="edge-north-NW -gneE92 -gneE91 -gneE94 -gneE95 edge-north-NW edge-west-WS gneE96 gneE97 gneE98"/>
    </vehicle>
    <vehicle id="-flow-random-route-58c62763-e23c-439a-ae32-0446463e8e64--3834751800847900259-14-0.1" type="actor-car-9056821315843928452" depart="120.00" departLane="0" departPos="36.38" departSpeed="max" arrivalLane="0" arrivalPos="87.01">
        <route edges="-gneE91 -gneE94"/>
    </vehicle>
    <vehicle id="-flow-random-route-6d0041f9-9e24-4e90-a43c-45d7dd3688e9--3834751800847900259-2-0.1" type="actor-car-9056821315843928452" depart="120.00" departLane="1" departPos="20.84" departSpeed="max" arrivalLane="1" arrivalPos="39.52">
        <route edges="gneE96 gneE97 gneE98"/>
    </vehicle>
    <vehicle id="-flow-random-route-73afb930-0683-4b5f-8780-4ccb93bd4478--3834751800847900259-16-0.1" type="actor-car-9056821315843928452" depart="120.00" departLane="0" departPos="29.83" departSpeed="max" arrivalLane="0" arrivalPos="117.42">
        <route edges="edge-south-SE gneE81 gneE82 gneE93 gneE94 gneE91 gneE92 edge-west-WS gneE96 gneE97"/>
    </vehicle>
    <vehicle id="-flow-random-route-8679d4c8-347d-48fe-86d5-cdfc0ed0714a--3834751800847900259-23-0.1" type="actor-car-9056821315843928452" depart="120.00" departLane="1" departPos="9.87" departSpeed="max" arrivalLane="0" arrivalPos="70.42">
        <route edges="edge-north-NW edge-west-WS edge-south-SE gneE81 gneE82 gneE93 -gneE95 edge-north-NW -gneE92 -gneE91"/>
    </vehicle>
    <vehicle id="-flow-random-route-8b40e427-34d2-48a5-8c0e-88ba0b42ed08--3834751800847900259-19-0.1" type="actor-car-9056821315843928452" depart="120.00" departLane="0" departPos="40.48" departSpeed="max" arrivalLane="0" arrivalPos="12.69">
        <route edges="gneE91 gneE92 edge-west-WS gneE96 gneE97 gneE98 gneE93 -gneE95 edge-north-NW -gneE92"/>
    </vehicle>
    <vehicle id="-flow-random-route-935c2378-5027-4cb6-94c6-665bf1f07b97--3834751800847900259-27-0.1" type="actor-car-9056821315843928452" depart="120.00" departLane="0" departPos="71.04" departSpeed="max" arrivalLane="0" arrivalPos="42.44">
        <route edges="gneE98 gneE93 gneE94"/>
    </vehicle>
    <vehicle id="-flow-random-route-95836110-1874-46db-93e0-ab2f3d912c5d--3834751800847900259-17-0.1" type="actor-car-9056821315843928452" depart="120.00" departLane="1" departPos="15.43" departSpeed="max" arrivalLane="0" arrivalPos="47.80">
        <route edges="edge-east-EN gneE95 gneE94 gneE91 gneE92 edge-west-WS edge-south-SE edge-east-EN edge-north-NW -gneE92"/>
    </vehicle>
    <vehicle id="-flow-random-route-a713cf10-a037-4dcc-acc5-299042a13b78--3834751800847900259-20-0.1" type="actor-car-9056821315843928452" depart="120.00" departLane="0" departPos="65.31" departSpeed="max" arrivalLane="0" arrivalPos="33.60">
        <route edges="gneE95 -gneE93 -gneE82 -gneE81 edge-east-EN gneE95 gneE94 gneE91 gneE92 edge-west-WS"/>
    </vehicle>
    <vehicle id="-flow-random-route-aa1e33a7-90f1-4fae-95d6-f8800261394e--3834751800847900259-28-0.1" type="actor-car-9056821315843928452" depart="120.00" departLane="0" departPos="48.36" departSpeed="max" arrivalLane="0" arrivalPos="60.41">
        <route edges="gneE91 gneE92 edge-west-WS gneE96 gneE97 gneE98 -gneE82 -gneE81 edge-east-EN gneE95"/>
    </vehicle>
    <vehicle id="-flow-random-route-ac14d631-a3b7-4d9f-b2ab-ce905c9b8622--3834751800847900259-11-0.1" type="actor-car-9056821315843928452" depart="120.00" departLane="0" departPos="55.30" departSpeed="max" arrivalLane="0" arrivalPos="40.57">
        <route edges="edge-east-EN gneE95 -gneE93 -gneE82 -gneE81 edge-east-EN gneE95 gneE94 gneE91 gneE92"/>
    </vehicle>
    <vehicle id="-flow-random-route-b03f81b3-93bc-4948-bded-4701aa1b2275--3834751800847900259-3-0.1" type="actor-car-9056821315843928452" depart="120.00" departLane="0" departPos="88.80" departSpeed="max" arrivalLane="0" arrivalPos="24.10">
        <route edges="gneE97 gneE98 -gneE82 -gneE81 edge-east-EN gneE95 gneE94 gneE91 gneE92 edge-west-WS"/>
    </vehicle>
    <vehicle id="-flow-random-route-b8b0c7e3-6920-44bc-8b32-37d3ec67b3ca--3834751800847900259-0-0.1" type="actor-car-9056821315843928452" depart="120.00" departLane="0" departPos="12.00" departSpeed="max" arrivalLane="0" arrivalPos="2.18">
        <route edges="-gneE95 edge-north-NW edge-west-WS edge-south-SE gneE81 gneE82 gneE93 -gneE95 edge-north-NW -gneE92"/>
    </vehicle>
    <vehicle id="-flow-random-route-b8be2f6c-ee59-480c-9290-b287bbee6c60--3834751800847900259-22-0.1" type="actor-car-9056821315843928452" depart="120.00" departLane="0" departPos="27.93" departSpeed="max" arrivalLane="0" arrivalPos="5.24">
        <route edges="-gneE91 -gneE94"/>
    </vehicle>
    <vehicle id="-flow-random-route-ba4e4bec-b3f3-4c8c-b306-0c27916052a5--3834751800847900259-1-0.1" type="actor-car-9056821315843928452" depart="120.00" departLane="0" departPos="107.50" departSpeed="max" arrivalLane="0" arrivalPos="68.96">
        <route edges="gneE96 gneE97"/>
    </vehicle>
    <vehicle id="-flow-random-route-cf0daf98-4383-493a-9cf0-e07cf6448cd0--3834751800847900259-9-0.1" type="actor-car-9056821315843928452" depart="120.00" departLane="0" departPos="82.74" departSpeed="max" arrivalLane="0" arrivalPos="11.84">
        <route edges="gneE98 -gneE82"/>
    </vehicle>
    <vehicle id="-flow-random-route-dc63857f-7386-4d98-b0ca-36b404c3fe94--3834751800847900259-18-0.1" type="actor-car-9056821315843928452" depart="120.00" departLane="0" departPos="45.14" departSpeed="max" arrivalLane="0" arrivalPos="41.88">
        <route edges="gneE82 gneE93"/>
    </vehicle>
    <vehicle id="-flow-random-route-dcade253-5ac1-4558-a82b-fcd72776a21e--3834751800847900259-24-0.1" type="actor-car-9056821315843928452" depart="120.00" departLane="0" departPos="50.01" departSpeed="max" arrivalLane="0" arrivalPos="27.74">
        <route edges="-gneE92 -gneE91 -gneE94 -gneE95 edge-north-NW -gneE92 -gneE91 -gneE94 -gneE93 -gneE82"/>
    </vehicle>
    <vehicle id="-flow-random-route-de62050e-93c2-4899-8faf-0a4e944ecd9a--3834751800847900259-29-0.1" type="actor-car-9056821315843928452" depart="120.00" departLane="0" departPos="0.84" departSpeed="max" arrivalLane="0" arrivalPos="13.03">
        <route edges="gneE82 gneE93 -gneE95 edge-north-NW -gneE92"/>
    </vehicle>
    <vehicle id="-flow-random-route-e623e832-679b-4213-ab62-ec16de772073--3834751800847900259-26-0.1" type="actor-car-9056821315843928452" depart="120.00" departLane="0" departPos="22.06" departSpeed="max" arrivalLane="0" arrivalPos="23.91">
        <route edges="-gneE82 -gneE81 edge-east-EN gneE95 gneE94 gneE91 gneE92 edge-west-WS edge-south-SE gneE81"/>
    </vehicle>
    <vehicle id="-flow-random-route-e9ef83e3-6b41-4179-ae4c-135c5e75423b--3834751800847900259-5-0.1" type="actor-car-9056821315843928452" depart="120.00" departLane="0" departPos="25.55" departSpeed="max" arrivalLane="0" arrivalPos="81.07">
        <route edges="-gneE94 -gneE95 edge-north-NW edge-west-WS gneE96 gneE97 gneE98 gneE93 gneE94 gneE91"/>
    </vehicle>
    <vehicle id="-flow-random-route-f1c34568-6d1b-4d36-b7ff-fd3eb330b2d1--3834751800847900259-25-0.1" type="actor-car-9056821315843928452" depart="120.00" departLane="0" departPos="67.74" departSpeed="max" arrivalLane="0" arrivalPos="1.57">
        <route edges="gneE82 gneE93 -gneE95 edge-north-NW edge-west-WS gneE96 gneE97 gneE98 -gneE82 -gneE81"/>
    </vehicle>
    <vehicle id="-flow-random-route-f641bacd-7c15-4679-9ab7-0788dffc9056--3834751800847900259-7-0.1" type="actor-car-9056821315843928452" depart="120.00" departLane="0" departPos="42.41" departSpeed="max" arrivalLane="0" arrivalPos="14.36">
        <route edges="-gneE94 -gneE93 -gneE82 -gneE81 edge-east-EN edge-north-NW -gneE92 -gneE91 -gneE94 -gneE95"/>
    </vehicle>
    <vehicle id="-flow-random-route-fe07d854-6376-471b-86e3-e75632c1590e--3834751800847900259-21-0.1" type="actor-car-9056821315843928452" depart="120.00" departLane="1" departPos="12.47" departSpeed="max" arrivalLane="0" arrivalPos="47.16">
        <route edges="edge-east-EN edge-north-NW -gneE92 -gneE91 -gneE94 -gneE93 -gneE82 -gneE81 edge-east-EN gneE95"/>
    </vehicle>
    <vehicle id="-flow-random-route-04bf26a0-4882-40f5-b072-6beed9287881--3834751800847900259-13-0.2" type="actor-car-9056821315843928452" depart="240.00" departLane="0" departPos="70.51" departSpeed="max" arrivalLane="0" arrivalPos="62.82">
        <route edges="-gneE94 -gneE93"/>
    </vehicle>
    <vehicle id="-flow-random-route-09eefaef-f3ee-4492-8943-b6ddde712540--3834751800847900259-10-0.2" type="actor-car-9056821315843928452" depart="240.00" departLane="0" departPos="49.50" departSpeed="max" arrivalLane="0" arrivalPos="81.65">
        <route edges="-gneE95 edge-north-NW -gneE92 -gneE91 -gneE94"/>
    </vehicle>
    <vehicle id="-flow-random-route-1f2d655b-f8c6-4263-a274-bd28f9bfa443--3834751800847900259-6-0.2" type="actor-car-9056821315843928452" depart="240.00" departLane="0" departPos="22.28" departSpeed="max" arrivalLane="0" arrivalPos="64.11">
        <route edges="gneE82 gneE93 gneE94 gneE91 gneE92 edge-west-WS"/>
    </vehicle>
    <vehicle id="-flow-random-route-3820bc8e-9a0b-4489-b4a8-ff63c1cde6c3--3834751800847900259-12-0.2" type="actor-car-9056821315843928452" depart="240.00" departLane="0" departPos="53.67" departSpeed="max" arrivalLane="1" arrivalPos="40.32">
        <route edges="-gneE91 -gneE94 -gneE93 -gneE82 -gneE81 edge-east-EN"/>
    </vehicle>
    <vehicle id="-flow-random-route-43086a48-16dd-4f0a-b90c-c313cdd34632--3834751800847900259-4-0.2" type="actor-car-9056821315843928452" depart="240.00" departLane="0" departPos="95.35" departSpeed="max" arrivalLane="0" arrivalPos="93.70">
        <route edges="-gneE91 -gneE94"/>
    </vehicle>
    <vehicle id="-flow-random-route-46509eb0-c8ec-43e2-8fee-73aae5e93798--3834751800847900259-8-0.2" type="actor-car-9056821315843928452" depart="240.00" departLane="0" departPos="6.90" departSpeed="max" arrivalLane="0" arrivalPos="16.24">
        <route edges="gneE81 gneE82 gneE93 -gneE95 edge-north-NW -gneE92 -gneE91 -gneE94 -gneE93 -gneE82"/>
    </vehicle>
    <vehicle id="-flow-random-route-546bca6b-50ef-40d4-b04e-2674dfe6f333--3834751800847900259-15-0.2" type="actor-car-9056821315843928452" depart="240.00" departLane="0" departPos="30.87" departSpeed="max" arrivalLane="0" arrivalPos="48.51">
        <route edges="edge-north-NW -gneE92 -gneE91 -gneE94 -gneE95 edge-north-NW edge-west-WS gneE96 gneE97 gneE98"/>
    </vehicle>
    <vehicle id="-flow-random-route-58c62763-e23c-439a-ae32-0446463e8e64--3834751800847900259-14-0.2" type="actor-car-9056821315843928452" depart="240.00" departLane="0" departPos="36.38" departSpeed="max" arrivalLane="0" arrivalPos="87.01">
        <route edges="-gneE91 -gneE94"/>
    </vehicle>
    <vehicle id="-flow-random-route-6d0041f9-9e24-4e90-a43c-45d7dd3688e9--3834751800847900259-2-0.2" type="actor-car-9056821315843928452" depart="240.00" departLane="1" departPos="20.84" departSpeed="max" arrivalLane="1" arrivalPos="39.52">
        <route edges="gneE96 gneE97 gneE98"/>
    </vehicle>
    <vehicle id="-flow-random-route-73afb930-0683-4b5f-8780-4ccb93bd4478--3834751800847900259-16-0.2" type="actor-car-9056821315843928452" depart="240.00" departLane="0" departPos="29.83" departSpeed="max" arrivalLane="0" arrivalPos="117.42">
        <route edges="edge-south-SE gneE81 gneE82 gneE93 gneE94 gneE91 gneE92 edge-west-WS gneE96 gneE97"/>
    </vehicle>
    <vehicle id="-flow-random-route-8679d4c8-347d-48fe-86d5-cdfc0ed0714a--3834751800847900259-23-0.2" type="actor-car-9056821315843928452" depart="240.00" departLane="1" departPos="9.87" departSpeed="max" arrivalLane="0" arrivalPos="70.42">
        <route edges="edge-north-NW edge-west-WS edge-south-SE gneE81 gneE82 gneE93 -gneE95 edge-north-NW -gneE92 -gneE91"/>
    </vehicle>
    <vehicle id="-flow-random-route-8b40e427-34d2-48a5-8c0e-88ba0b42ed08--3834751800847900259-19-0.2" type="actor-car-9056821315843928452" depart="240.00" departLane="0" departPos="40.48" departSpeed="max" arrivalLane="0" arrivalPos="12.69">
        <route edges="gneE91 gneE92 edge-west-WS gneE96 gneE97 gneE98 gneE93 -gneE95 edge-north-NW -gneE92"/>
    </vehicle>
    <vehicle id="-flow-random-route-935c2378-5027-4cb6-94c6-665bf1f07b97--3834751800847900259-27-0.2" type="actor-car-9056821315843928452" depart="240.00" departLane="0" departPos="71.04" departSpeed="max" arrivalLane="0" arrivalPos="42.44">
        <route edges="gneE98 gneE93 gneE94"/>
    </vehicle>
    <vehicle id="-flow-random-route-95836110-1874-46db-93e0-ab2f3d912c5d--3834751800847900259-17-0.2" type="actor-car-9056821315843928452" depart="240.00" departLane="1" departPos="15.43" departSpeed="max" arrivalLane="0" arrivalPos="47.80">
        <route edges="edge-east-EN gneE95 gneE94 gneE91 gneE92 edge-west-WS edge-south-SE edge-east-EN edge-north-NW -gneE92"/>
    </vehicle>
    <vehicle id="-flow-random-route-a713cf10-a037-4dcc-acc5-299042a13b78--3834751800847900259-20-0.2" type="actor-car-9056821315843928452" depart="240.00" departLane="0" departPos="65.31" departSpeed="max" arrivalLane="0" arrivalPos="33.60">
        <route edges="gneE95 -gneE93 -gneE82 -gneE81 edge-east-EN gneE95 gneE94 gneE91 gneE92 edge-west-WS"/>
    </vehicle>
    <vehicle id="-flow-random-route-aa1e33a7-90f1-4fae-95d6-f8800261394e--3834751800847900259-28-0.2" type="actor-car-9056821315843928452" depart="240.00" departLane="0" departPos="48.36" departSpeed="max" arrivalLane="0" arrivalPos="60.41">
        <route edges="gneE91 gneE92 edge-west-WS gneE96 gneE97 gneE98 -gneE82 -gneE81 edge-east-EN gneE95"/>
    </vehicle>
    <vehicle id="-flow-random-route-ac14d631-a3b7-4d9f-b2ab-ce905c9b8622--3834751800847900259-11-0.2" type="actor-car-9056821315843928452" depart="240.00" departLane="0" departPos="55.30" departSpeed="max" arrivalLane="0" arrivalPos="40.57">
        <route edges="edge-east-EN gneE95 -gneE93 -gneE82 -gneE81 edge-east-EN gneE95 gneE94 gneE91 gneE92"/>
    </vehicle>
    <vehicle id="-flow-random-route-b03f81b3-93bc-4948-bded-4701aa1b2275--3834751800847900259-3-0.2" type="actor-car-9056821315843928452" depart="240.00" departLane="0" departPos="88.80" departSpeed="max" arrivalLane="0" arrivalPos="24.10">
        <route edges="gneE97 gneE98 -gneE82 -gneE81 edge-east-EN gneE95 gneE94 gneE91 gneE92 edge-west-WS"/>
    </vehicle>
    <vehicle id="-flow-random-route-b8b0c7e3-6920-44bc-8b32-37d3ec67b3ca--3834751800847900259-0-0.2" type="actor-car-9056821315843928452" depart="240.00" departLane="0" departPos="12.00" departSpeed="max" arrivalLane="0" arrivalPos="2.18">
        <route edges="-gneE95 edge-north-NW edge-west-WS edge-south-SE gneE81 gneE82 gneE93 -gneE95 edge-north-NW -gneE92"/>
    </vehicle>
    <vehicle id="-flow-random-route-b8be2f6c-ee59-480c-9290-b287bbee6c60--3834751800847900259-22-0.2" type="actor-car-9056821315843928452" depart="240.00" departLane="0" departPos="27.93" departSpeed="max" arrivalLane="0" arrivalPos="5.24">
        <route edges="-gneE91 -gneE94"/>
    </vehicle>
    <vehicle id="-flow-random-route-ba4e4bec-b3f3-4c8c-b306-0c27916052a5--3834751800847900259-1-0.2" type="actor-car-9056821315843928452" depart="240.00" departLane="0" departPos="107.50" departSpeed="max" arrivalLane="0" arrivalPos="68.96">
        <route edges="gneE96 gneE97"/>
    </vehicle>
    <vehicle id="-flow-random-route-cf0daf98-4383-493a-9cf0-e07cf6448cd0--3834751800847900259-9-0.2" type="actor-car-9056821315843928452" depart="240.00" departLane="0" departPos="82.74" departSpeed="max" arrivalLane="0" arrivalPos="11.84">
        <route edges="gneE98 -gneE82"/>
    </vehicle>
    <vehicle id="-flow-random-route-dc63857f-7386-4d98-b0ca-36b404c3fe94--3834751800847900259-18-0.2" type="actor-car-9056821315843928452" depart="240.00" departLane="0" departPos="45.14" departSpeed="max" arrivalLane="0" arrivalPos="41.88">
        <route edges="gneE82 gneE93"/>
    </vehicle>
    <vehicle id="-flow-random-route-dcade253-5ac1-4558-a82b-fcd72776a21e--3834751800847900259-24-0.2" type="actor-car-9056821315843928452" depart="240.00" departLane="0" departPos="50.01" departSpeed="max" arrivalLane="0" arrivalPos="27.74">