<?xml version="1.0" encoding="UTF-8"?>

<!-- generated on Fri Sep 18 03:06:16 2020 by Eclipse SUMO duarouter Version 1.6.0
<configuration xmlns:xsi="http://www.w3.org/2001/XMLSchema-instance" xsi:noNamespaceSchemaLocation="http://sumo.dlr.de/xsd/duarouterConfiguration.xsd">

    <input>
        <net-file value="dataset_public/all_loop/all_loop_a/map.net.xml"/>
        <route-files value="/tmp/tmpaip3vtgn/trips.trips.xml"/>
    </input>

    <output>
        <output-file value="dataset_public/all_loop/all_loop_a/traffic/30_patient_car.rou.xml"/>
        <alternatives-output value="dataset_public/all_loop/all_loop_a/traffic/30_patient_car.rou.alt.xml"/>
    </output>

    <processing>
        <unsorted-input value="true"/>
        <repair value="true"/>
    </processing>

    <report>
        <error-log value="/tmp/smarts/_duarouter_routing/traffic/30_patient_car.log"/>
        <no-step-log value="true"/>
    </report>

    <random_number>
        <seed value="42"/>
    </random_number>

</configuration>
-->

<routes xmlns:xsi="http://www.w3.org/2001/XMLSchema-instance" xsi:noNamespaceSchemaLocation="http://sumo.dlr.de/xsd/routes_file.xsd">
    <vType id="actor-car-3260909167279537147" minGap="2.50" speedFactor="normc(0.50,0.20,0.20,2.00)" vClass="passenger" impatience="0.50" lcCooperative="0.5" lcImpatience="0" jmDriveAfterYellowTime="1.0" accel="2.6" decel="4.5" sigma="0.5"/>
    <vehicle id="-flow-random-route-023a91b6-713a-4db1-b3c5-49ba83c0d5cb-1102043599956543472-0-0.0" type="actor-car-3260909167279537147" depart="0.00" departLane="0" departPos="23.83" departSpeed="max" arrivalLane="0" arrivalPos="82.00">
        <route edges="-gneE124 gneE100 gneE91 edge-east-EN edge-north-NW edge-west-WS gneE143 gneE145 gneE146 gneE148"/>
    </vehicle>
    <vehicle id="-flow-random-route-097adcdb-012b-4535-9c4b-2072757fdb34-1102043599956543472-8-0.0" type="actor-car-3260909167279537147" depart="0.00" departLane="0" departPos="21.09" departSpeed="max" arrivalLane="0" arrivalPos="54.14">
        <route edges="gneE114 gneE125 gneE129 gneE137 gneE138 -gneE110 gneE135 -gneE129 -gneE125 -gneE114"/>
    </vehicle>
    <vehicle id="-flow-random-route-0f2ba26a-25fb-486e-9c8c-36ed9e8a9ebe-1102043599956543472-1-0.0" type="actor-car-3260909167279537147" depart="0.00" departLane="0" departPos="1.73" departSpeed="max" arrivalLane="1" arrivalPos="7.27">
        <route edges="gneE91 edge-east-EN -gneE140 -gneE138 -gneE137 -gneE135 gneE110 gneE140 edge-north-NW edge-west-WS"/>
    </vehicle>
    <vehicle id="-flow-random-route-107bf62e-f937-4d63-9a0a-619a0e13b100-1102043599956543472-6-0.0" type="actor-car-3260909167279537147" depart="0.00" departLane="0" departPos="122.31" departSpeed="max" arrivalLane="0" arrivalPos="45.19">
        <route edges="-gneE110 gneE135 -gneE129 -gneE125 -gneE114 gneE135 gneE137 gneE138 gneE104 gneE105"/>
    </vehicle>
    <vehicle id="-flow-random-route-11cfb0f4-3c78-4edd-a4b8-2ac7fc4641eb-1102043599956543472-18-0.0" type="actor-car-3260909167279537147" depart="0.00" departLane="0" departPos="11.08" departSpeed="max" arrivalLane="0" arrivalPos="43.83">
        <route edges="edge-north-NW edge-west-WS edge-south-SE edge-east-EN edge-north-NW edge-west-WS gneE143 gneE144 gneE124 gneE124.71"/>
    </vehicle>
    <vehicle id="-flow-random-route-122976d7-b917-4d03-af0f-e6392eebeed8-1102043599956543472-5-0.0" type="actor-car-3260909167279537147" depart="0.00" departLane="0" departPos="46.10" departSpeed="max" arrivalLane="1" arrivalPos="10.42">
        <route edges="gneE100 gneE91 edge-east-EN"/>
    </vehicle>
    <vehicle id="-flow-random-route-20c076e1-2dea-4759-a8ec-c23442e052ad-1102043599956543472-17-0.0" type="actor-car-3260909167279537147" depart="0.00" departLane="0" departPos="6.07" departSpeed="max" arrivalLane="0" arrivalPos="91.54">
        <route edges="gneE144 gneE100 gneE91 edge-east-EN -gneE140 -gneE138 -gneE137 -gneE129 -gneE125 -gneE114"/>
    </vehicle>
    <vehicle id="-flow-random-route-21ae18be-15dd-46f2-ad92-ca3aa9dca7a1-1102043599956543472-29-0.0" type="actor-car-3260909167279537147" depart="0.00" departLane="1" departPos="64.96" departSpeed="max" arrivalLane="1" arrivalPos="39.29">
        <route edges="gneE100 gneE91 edge-east-EN edge-north-NW edge-west-WS edge-south-SE edge-east-EN edge-north-NW edge-west-WS gneE143"/>
    </vehicle>
    <vehicle id="-flow-random-route-29746592-67ca-4ebe-b8fd-31d3e456dad5-1102043599956543472-25-0.0" type="actor-car-3260909167279537147" depart="0.00" departLane="1" departPos="20.49" departSpeed="max" arrivalLane="0" arrivalPos="8.84">
        <route edges="gneE161 gneE162 gneE124 gneE124.71 gneE114 gneE125 gneE129 gneE137 gneE138 gneE140"/>
    </vehicle>
    <vehicle id="-flow-random-route-32a7592b-3aad-4318-8cd2-f8081d3937eb-1102043599956543472-4-0.0" type="actor-car-3260909167279537147" depart="0.00" departLane="0" departPos="21.79" departSpeed="max" arrivalLane="0" arrivalPos="66.21">
        <route edges="-gneE140 gneE104 gneE105 edge-west-WS gneE143 gneE145 gneE146 gneE148 -gneE114 -gneE124"/>
    </vehicle>
    <vehicle id="-flow-random-route-36904c71-aab2-4621-9d4a-32934206eaa4-1102043599956543472-10-0.0" type="actor-car-3260909167279537147" depart="0.00" departLane="0" departPos="47.44" departSpeed="max" arrivalLane="0" arrivalPos="50.54">
        <route edges="gneE124 gneE124.71 gneE114 gneE125"/>
    </vehicle>
    <vehicle id="-flow-random-route-5fac8177-a89a-4ed3-b396-867c140fb2ef-1102043599956543472-3-0.0" type="actor-car-3260909167279537147" depart="0.00" departLane="1" departPos="21.25" departSpeed="max" arrivalLane="1" arrivalPos="1.05">
        <route edges="gneE105 edge-west-WS gneE143 gneE145 gneE146 gneE148 -gneE114 -gneE124 gneE100 gneE91"/>
    </vehicle>
    <vehicle id="-flow-random-route-62450f43-fd61-450c-b420-74d3cb3e914e-1102043599956543472-22-0.0" type="actor-car-3260909167279537147" depart="0.00" departLane="0" departPos="55.81" departSpeed="max" arrivalLane="0" arrivalPos="32.44">
        <route edges="gneE129 -gneE135"/>
    </vehicle>
    <vehicle id="-flow-random-route-6268f714-15a6-472a-b8a5-4614d40bc680-1102043599956543472-27-0.0" type="actor-car-3260909167279537147" depart="0.00" departLane="0" departPos="53.80" departSpeed="max" arrivalLane="0" arrivalPos="7.20">
        <route edges="gneE124.71 gneE135 gneE137 gneE138 gneE104 gneE105 edge-west-WS gneE143 gneE145 gneE146"/>
    </vehicle>
    <vehicle id="-flow-random-route-6296a0cf-ddaf-4438-b41c-b114cb8d3e8e-1102043599956543472-16-0.0" type="actor-car-3260909167279537147" depart="0.00" departLane="0" departPos="53.29" departSpeed="max" arrivalLane="0" arrivalPos="75.48">
        <route edges="gneE100 gneE91 edge-east-EN edge-north-NW edge-west-WS gneE143 gneE145 gneE146 gneE148 -gneE114"/>
    </vehicle>
    <vehicle id="-flow-random-route-6a91f60b-abe8-4eca-b4d6-a79b0ae4c3dd-1102043599956543472-12-0.0" type="actor-car-3260909167279537147" depart="0.00" departLane="0" departPos="15.02" departSpeed="max" arrivalLane="0" arrivalPos="21.79">
        <route edges="gneE145 gneE146 gneE161 gneE164 gneE124.71 gneE135 gneE137 gneE138 gneE104 gneE105"/>
    </vehicle>
    <vehicle id="-flow-random-route-7ff8aa3a-cc95-403f-ab14-c07bfcc9d51a-1102043599956543472-28-0.0" type="actor-car-3260909167279537147" depart="0.00" departLane="0" departPos="111.79" departSpeed="max" arrivalLane="0" arrivalPos="23.10">
        <route edges="-gneE137 -gneE129 -gneE125 -gneE114"/>
    </vehicle>
    <vehicle id="-flow-random-route-80407f2a-88a9-41cd-8ca8-a60e86f28806-1102043599956543472-9-0.0" type="actor-car-3260909167279537147" depart="0.00" departLane="1" departPos="7.78" departSpeed="max" arrivalLane="1" arrivalPos="5.64">
        <route edges="gneE104 gneE105 edge-west-WS gneE143 gneE145 gneE146 gneE161 gneE162 gneE100 gneE91"/>
    </vehicle>
    <vehicle id="-flow-random-route-89682a0b-264b-4bd8-9786-5e82102fce94-1102043599956543472-7-0.0" type="actor-car-3260909167279537147" depart="0.00" departLane="1" departPos="85.84" departSpeed="max" arrivalLane="0" arrivalPos="55.00">
        <route edges="gneE105 edge-west-WS gneE143 gneE144 gneE124 gneE124.71 gneE114 gneE125 gneE129 -gneE135"/>
    </vehicle>
    <vehicle id="-flow-random-route-9410fb42-ebee-49d8-9d5c-ee77057b1c5c-1102043599956543472-26-0.0" type="actor-car-3260909167279537147" depart="0.00" departLane="0" departPos="80.10" departSpeed="max" arrivalLane="1" arrivalPos="29.06">
        <route edges="-gneE129 -gneE125 -gneE114 gneE135 gneE137 gneE138 gneE140 edge-north-NW edge-west-WS gneE143"/>
    </vehicle>
    <vehicle id="-flow-random-route-984ffa8e-0089-4a12-8303-1eeeeffc0cf2-1102043599956543472-19-0.0" type="actor-car-3260909167279537147" depart="0.00" departLane="0" departPos="30.81" departSpeed="max" arrivalLane="0" arrivalPos="9.50">
        <route edges="edge-south-SE edge-east-EN edge-north-NW edge-west-WS gneE143 gneE144 gneE124 gneE124.71 gneE110 gneE140"/>
    </vehicle>
    <vehicle id="-flow-random-route-a708987f-5b62-4cbf-afe9-bbb4facdec0d-1102043599956543472-15-0.0" type="actor-car-3260909167279537147" depart="0.00" departLane="1" departPos="12.70" departSpeed="max" arrivalLane="1" arrivalPos="4.15">
        <route edges="edge-west-WS edge-south-SE edge-east-EN edge-north-NW edge-west-WS edge-south-SE edge-east-EN edge-north-NW edge-west-WS gneE143"/>
    </vehicle>
    <vehicle id="-flow-random-route-ad50b31a-d696-4963-b03a-3fce2c992167-1102043599956543472-20-0.0" type="actor-car-3260909167279537147" depart="0.00" departLane="0" departPos="0.41" departSpeed="max" arrivalLane="0" arrivalPos="1.84">
        <route edges="gneE140 edge-north-NW edge-west-WS edge-south-SE edge-east-EN -gneE140 -gneE110 -gneE124 gneE100 gneE91"/>
    </vehicle>
    <vehicle id="-flow-random-route-b11bb323-58ea-4215-b1bd-a11faad9a2e9-1102043599956543472-11-0.0" type="actor-car-3260909167279537147" depart="0.00" departLane="0" departPos="67.76" departSpeed="max" arrivalLane="1" arrivalPos="29.97">
        <route edges="gneE138 -gneE110 gneE135 -gneE129 -gneE125 -gneE114 -gneE124 gneE100 gneE91 edge-east-EN"/>
    </vehicle>
    <vehicle id="-flow-random-route-d24013cb-b29c-4e9b-b605-cbdb0948c144-1102043599956543472-14-0.0" type="actor-car-3260909167279537147" depart="0.00" departLane="1" departPos="35.27" departSpeed="max" arrivalLane="0" arrivalPos="77.10">
        <route edges="gneE104 gneE105 edge-west-WS gneE143 gneE145 gneE146 gneE161 gneE164 gneE124.71 gneE110"/>
    </vehicle>
    <vehicle id="-flow-random-route-edbce7f4-3cff-410e-8c0a-ccc28e726d3d-1102043599956543472-23-0.0" type="actor-car-3260909167279537147" depart="0.00" departLane="0" departPos="31.41" departSpeed="max" arrivalLane="0" arrivalPos="63.93">
        <route edges="gneE145 gneE146 gneE148 gneE125 gneE129 gneE137 gneE138 gneE140 edge-north-NW edge-west-WS"/>
    </vehicle>
    <vehicle id="-flow-random-route-f1839115-4b3c-42f4-9bc2-ec9dcca97a9d-1102043599956543472-21-0.0" type="actor-car-3260909167279537147" depart="0.00" departLane="1" departPos="33.12" departSpeed="max" arrivalLane="0" arrivalPos="19.84">
        <route edges="gneE143 gneE145 gneE146 gneE148 gneE125 gneE129 gneE137 gneE138 gneE104 gneE105"/>
    </vehicle>
    <vehicle id="-flow-random-route-f345847d-eae9-42ed-83ee-bd02510347b6-1102043599956543472-24-0.0" type="actor-car-3260909167279537147" depart="0.00" departLane="0" departPos="111.08" departSpeed="max" arrivalLane="0" arrivalPos="56.32">
        <route edges="gneE148 gneE125 gneE129 -gneE135 gneE114 gneE125 gneE129 -gneE135 -gneE124 gneE100"/>
    </vehicle>
    <vehicle id="-flow-random-route-fb24810b-0868-4adb-8fa5-ddc2229ddc26-1102043599956543472-13-0.0" type="actor-car-3260909167279537147" depart="0.00" departLane="0" departPos="49.79" departSpeed="max" arrivalLane="0" arrivalPos="2.95">
        <route edges="gneE138 gneE104 gneE105 edge-west-WS edge-south-SE edge-east-EN"/>
    </vehicle>
    <vehicle id="-flow-random-route-fd566e2b-b386-42ba-89ce-cd81af0472d2-1102043599956543472-2-0.0" type="actor-car-3260909167279537147" depart="0.00" departLane="0" departPos="14.67" departSpeed="max" arrivalLane="1" arrivalPos="1.13">
        <route edges="gneE135 gneE137 gneE138 gneE140 edge-north-NW edge-west-WS gneE143 gneE144 gneE100 gneE91"/>
    </vehicle>
    <vehicle id="-flow-random-route-023a91b6-713a-4db1-b3c5-49ba83c0d5cb-1102043599956543472-0-0.1" type="actor-car-3260909167279537147" depart="120.00" departLane="0" departPos="23.83" departSpeed="max" arrivalLane="0" arrivalPos="82.00">
        <route edges="-gneE124 gneE100 gneE91 edge-east-EN edge-north-NW edge-west-WS gneE143 gneE145 gneE146 gneE148"/>
    </vehicle>
    <vehicle id="-flow-random-route-097adcdb-012b-4535-9c4b-2072757fdb34-1102043599956543472-8-0.1" type="actor-car-3260909167279537147" depart="120.00" departLane="0" departPos="21.09" departSpeed="max" arrivalLane="0" arrivalPos="54.14">
        <route edges="gneE114 gneE125 gneE129 gneE137 gneE138 -gneE110 gneE135 -gneE129 -gneE125 -gneE114"/>
    </vehicle>
    <vehicle id="-flow-random-route-0f2ba26a-25fb-486e-9c8c-36ed9e8a9ebe-1102043599956543472-1-0.1" type="actor-car-3260909167279537147" depart="120.00" departLane="0" departPos="1.73" departSpeed="max" arrivalLane="1" arrivalPos="7.27">
        <route edges="gneE91 edge-east-EN -gneE140 -gneE138 -gneE137 -gneE135 gneE110 gneE140 edge-north-NW edge-west-WS"/>
    </vehicle>
    <vehicle id="-flow-random-route-107bf62e-f937-4d63-9a0a-619a0e13b100-1102043599956543472-6-0.1" type="actor-car-3260909167279537147" depart="120.00" departLane="0" departPos="122.31" departSpeed="max" arrivalLane="0" arrivalPos="45.19">
        <route edges="-gneE110 gneE135 -gneE129 -gneE125 -gneE114 gneE135 gneE137 gneE138 gneE104 gneE105"/>
    </vehicle>
    <vehicle id="-flow-random-route-11cfb0f4-3c78-4edd-a4b8-2ac7fc4641eb-1102043599956543472-18-0.1" type="actor-car-3260909167279537147" depart="120.00" departLane="0" departPos="11.08" departSpeed="max" arrivalLane="0" arrivalPos="43.83">
        <route edges="edge-north-NW edge-west-WS edge-south-SE edge-east-EN edge-north-NW edge-west-WS gneE143 gneE144 gneE124 gneE124.71"/>
    </vehicle>
    <vehicle id="-flow-random-route-122976d7-b917-4d03-af0f-e6392eebeed8-1102043599956543472-5-0.1" type="actor-car-3260909167279537147" depart="120.00" departLane="0" departPos="46.10" departSpeed="max" arrivalLane="1" arrivalPos="10.42">
        <route edges="gneE100 gneE91 edge-east-EN"/>
    </vehicle>
    <vehicle id="-flow-random-route-20c076e1-2dea-4759-a8ec-c23442e052ad-1102043599956543472-17-0.1" type="actor-car-3260909167279537147" depart="120.00" departLane="0" departPos="6.07" departSpeed="max" arrivalLane="0" arrivalPos="91.54">
        <route edges="gneE144 gneE100 gneE91 edge-east-EN -gneE140 -gneE138 -gneE137 -gneE129 -gneE125 -gneE114"/>
    </vehicle>
    <vehicle id="-flow-random-route-21ae18be-15dd-46f2-ad92-ca3aa9dca7a1-1102043599956543472-29-0.1" type="actor-car-3260909167279537147" depart="120.00" departLane="1" departPos="64.96" departSpeed="max" arrivalLane="1" arrivalPos="39.29">
        <route edges="gneE100 gneE91 edge-east-EN edge-north-NW edge-west-WS edge-south-SE edge-east-EN edge-north-NW edge-west-WS gneE143"/>
    </vehicle>
    <vehicle id="-flow-random-route-29746592-67ca-4ebe-b8fd-31d3e456dad5-1102043599956543472-25-0.1" type="actor-car-3260909167279537147" depart="120.00" departLane="1" departPos="20.49" departSpeed="max" arrivalLane="0" arrivalPos="8.84">
        <route edges="gneE161 gneE162 gneE124 gneE124.71 gneE114 gneE125 gneE129 gneE137 gneE138 gneE140"/>
    </vehicle>
    <vehicle id="-flow-random-route-32a7592b-3aad-4318-8cd2-f8081d3937eb-1102043599956543472-4-0.1" type="actor-car-3260909167279537147" depart="120.00" departLane="0" departPos="21.79" departSpeed="max" arrivalLane="0" arrivalPos="66.21">
        <route edges="-gneE140 gneE104 gneE105 edge-west-WS gneE143 gneE145 gneE146 gneE148 -gneE114 -gneE124"/>
    </vehicle>
    <vehicle id="-flow-random-route-36904c71-aab2-4621-9d4a-32934206eaa4-1102043599956543472-10-0.1" type="actor-car-3260909167279537147" depart="120.00" departLane="0" departPos="47.44" departSpeed="max" arrivalLane="0" arrivalPos="50.54">
        <route edges="gneE124 gneE124.71 gneE114 gneE125"/>
    </vehicle>
    <vehicle id="-flow-random-route-5fac8177-a89a-4ed3-b396-867c140fb2ef-1102043599956543472-3-0.1" type="actor-car-3260909167279537147" depart="120.00" departLane="1" departPos="21.25" departSpeed="max" arrivalLane="1" arrivalPos="1.05">
        <route edges="gneE105 edge-west-WS gneE143 gneE145 gneE146 gneE148 -gneE114 -gneE124 gneE100 gneE91"/>
    </vehicle>
    <vehicle id="-flow-random-route-62450f43-fd61-450c-b420-74d3cb3e914e-1102043599956543472-22-0.1" type="actor-car-3260909167279537147" depart="120.00" departLane="0" departPos="55.81" departSpeed="max" arrivalLane="0" arrivalPos="32.44">
        <route edges="gneE129 -gneE135"/>
    </vehicle>
    <vehicle id="-flow-random-route-6268f714-15a6-472a-b8a5-4614d40bc680-1102043599956543472-27-0.1" type="actor-car-3260909167279537147" depart="120.00" departLane="0" departPos="53.80" departSpeed="max" arrivalLane="0" arrivalPos="7.20">
        <route edges="gneE124.71 gneE135 gneE137 gneE138 gneE104 gneE105 edge-west-WS gneE143 gneE145 gneE146"/>
    </vehicle>
    <vehicle id="-flow-random-route-6296a0cf-ddaf-4438-b41c-b114cb8d3e8e-1102043599956543472-16-0.1" type="actor-car-3260909167279537147" depart="120.00" departLane="0" departPos="53.29" departSpeed="max" arrivalLane="0" arrivalPos="75.48">
        <route edges="gneE100 gneE91 edge-east-EN edge-north-NW edge-west-WS gneE143 gneE145 gneE146 gneE148 -gneE114"/>
    </vehicle>
    <vehicle id="-flow-random-route-6a91f60b-abe8-4eca-b4d6-a79b0ae4c3dd-1102043599956543472-12-0.1" type="actor-car-3260909167279537147" depart="120.00" departLane="0" departPos="15.02" departSpeed="max" arrivalLane="0" arrivalPos="21.79">
        <route edges="gneE145 gneE146 gneE161 gneE164 gneE124.71 gneE135 gneE137 gneE138 gneE104 gneE105"/>
    </vehicle>
    <vehicle id="-flow-random-route-7ff8aa3a-cc95-403f-ab14-c07bfcc9d51a-1102043599956543472-28-0.1" type="actor-car-3260909167279537147" depart="120.00" departLane="0" departPos="111.79" departSpeed="max" arrivalLane="0" arrivalPos="23.10">
        <route edges="-gneE137 -gneE129 -gneE125 -gneE114"/>
    </vehicle>
    <vehicle id="-flow-random-route-80407f2a-88a9-41cd-8ca8-a60e86f28806-1102043599956543472-9-0.1" type="actor-car-3260909167279537147" depart="120.00" departLane="1" departPos="7.78" departSpeed="max" arrivalLane="1" arrivalPos="5.64">
        <route edges="gneE104 gneE105 edge-west-WS gneE143 gneE145 gneE146 gneE161 gneE162 gneE100 gneE91"/>
    </vehicle>
    <vehicle id="-flow-random-route-89682a0b-264b-4bd8-9786-5e82102fce94-1102043599956543472-7-0.1" type="actor-car-3260909167279537147" depart="120.00" departLane="1" departPos="85.84" departSpeed="max" arrivalLane="0" arrivalPos="55.00">
        <route edges="gneE105 edge-west-WS gneE143 gneE144 gneE124 gneE124.71 gneE114 gneE125 gneE129 -gneE135"/>
    </vehicle>
    <vehicle id="-flow-random-route-9410fb42-ebee-49d8-9d5c-ee77057b1c5c-1102043599956543472-26-0.1" type="actor-car-3260909167279537147" depart="120.00" departLane="0" departPos="80.10" departSpeed="max" arrivalLane="1" arrivalPos="29.06">
        <route edges="-gneE129 -gneE125 -gneE114 gneE135 gneE137 gneE138 gneE140 edge-north-NW edge-west-WS gneE143"/>
    </vehicle>
    <vehicle id="-flow-random-route-984ffa8e-0089-4a12-8303-1eeeeffc0cf2-1102043599956543472-19-0.1" type="actor-car-3260909167279537147" depart="120.00" departLane="0" departPos="30.81" departSpeed="max" arrivalLane="0" arrivalPos="9.50">
        <route edges="edge-south-SE edge-east-EN edge-north-NW edge-west-WS gneE143 gneE144 gneE124 gneE124.71 gneE110 gneE140"/>
    </vehicle>
    <vehicle id="-flow-random-route-a708987f-5b62-4cbf-afe9-bbb4facdec0d-1102043599956543472-15-0.1" type="actor-car-3260909167279537147" depart="120.00" departLane="1" departPos="12.70" departSpeed="max" arrivalLane="1" arrivalPos="4.15">
        <route edges="edge-west-WS edge-south-SE edge-east-EN edge-north-NW edge-west-WS edge-south-SE edge-east-EN edge-north-NW edge-west-WS gneE143"/>
    </vehicle>
    <vehicle id="-flow-random-route-ad50b31a-d696-4963-b03a-3fce2c992167-1102043599956543472-20-0.1" type="actor-car-3260909167279537147" depart="120.00" departLane="0" departPos="0.41" departSpeed="max" arrivalLane="0" arrivalPos="1.84">
        <route edges="gneE140 edge-north-NW edge-west-WS edge-south-SE edge-east-EN -gneE140 -gneE110 -gneE124 gneE100 gneE91"/>
    </vehicle>
    <vehicle id="-flow-random-route-b11bb323-58ea-4215-b1bd-a11faad9a2e9-1102043599956543472-11-0.1" type="actor-car-3260909167279537147" depart="120.00" departLane="0" departPos="67.76" departSpeed="max" arrivalLane="1" arrivalPos="29.97">
        <route edges="gneE138 -gneE110 gneE135 -gneE129 -gneE125 -gneE114 -gneE124 gneE100 gneE91 edge-east-EN"/>
    </vehicle>
    <vehicle id="-flow-random-route-d24013cb-b29c-4e9b-b605-cbdb0948c144-1102043599956543472-14-0.1" type="actor-car-3260909167279537147" depart="120.00" departLane="1" departPos="35.27" departSpeed="max" arrivalLane="0" arrivalPos="77.10">
        <route edges="gneE104 gneE105 edge-west-WS gneE143 gneE145 gneE146 gneE161 gneE164 gneE124.71 gneE110"/>
    </vehicle>
    <vehicle id="-flow-random-route-edbce7f4-3cff-410e-8c0a-ccc28e726d3d-1102043599956543472-23-0.1" type="actor-car-3260909167279537147" depart="120.00" departLane="0" departPos="31.41" departSpeed="max" arrivalLane="0" arrivalPos="63.93">
        <route edges="gneE145 gneE146 gneE148 gneE125 gneE129 gneE137 gneE138 gneE140 edge-north-NW edge-west-WS"/>
    </vehicle>
    <vehicle id="-flow-random-route-f1839115-4b3c-42f4-9bc2-ec9dcca97a9d-1102043599956543472-21-0.1" type="actor-car-3260909167279537147" depart="120.00" departLane="1" departPos="33.12" departSpeed="max" arrivalLane="0" arrivalPos="19.84">
        <route edges="gneE143 gneE145 gneE146 gneE148 gneE125 gneE129 gneE137 gneE138 gneE104 gneE105"/>
    </vehicle>
    <vehicle id="-flow-random-route-f345847d-eae9-42ed-83ee-bd02510347b6-1102043599956543472-24-0.1" type="actor-car-3260909167279537147" depart="120.00" departLane="0" departPos="111.08" departSpeed="max" arrivalLane="0" arrivalPos="56.32">
        <route edges="gneE148 gneE125 gneE129 -gneE135 gneE114 gneE125 gneE129 -gneE135 -gneE124 gneE100"/>
    </vehicle>
    <vehicle id="-flow-random-route-fb24810b-0868-4adb-8fa5-ddc2229ddc26-1102043599956543472-13-0.1" type="actor-car-3260909167279537147" depart="120.00" departLane="0" departPos="49.79" departSpeed="max" arrivalLane="0" arrivalPos="2.95">
        <route edges="gneE138 gneE104 gneE105 edge-west-WS edge-south-SE edge-east-EN"/>
    </vehicle>
    <vehicle id="-flow-random-route-fd566e2b-b386-42ba-89ce-cd81af0472d2-1102043599956543472-2-0.1" type="actor-car-3260909167279537147" depart="120.00" departLane="0" departPos="14.67" departSpeed="max" arrivalLane="1" arrivalPos="1.13">
        <route edges="gneE135 gneE137 gneE138 gneE140 edge-north-NW edge-west-WS gneE143 gneE144 gneE100 gneE91"/>
    </vehicle>
    <vehicle id="-flow-random-route-023a91b6-713a-4db1-b3c5-49ba83c0d5cb-1102043599956543472-0-0.2" type="actor-car-3260909167279537147" depart="240.00" departLane="0" departPos="23.83" departSpeed="max" arrivalLane="0" arrivalPos="82.00">
        <route edges="-gneE124 gneE100 gneE91 edge-east-EN edge-north-NW edge-west-WS gneE143 gneE145 gneE146 gneE148"/>
    </vehicle>
    <vehicle id="-flow-random-route-097adcdb-012b-4535-9c4b-2072757fdb34-1102043599956543472-8-0.2" type="actor-car-3260909167279537147" depart="240.00" departLane="0" departPos="21.09" departSpeed="max" arrivalLane="0" arrivalPos="54.14">
        <route edges="gneE114 gneE125 gneE129 gneE137 gneE138 -gneE110 gneE135 -gneE129 -gneE125 -gneE114"/>
    </vehicle>
    <vehicle id="-flow-random-route-0f2ba26a-25fb-486e-9c8c-36ed9e8a9ebe-1102043599956543472-1-0.2" type="actor-car-3260909167279537147" depart="240.00" departLane="0" departPos="1.73" departSpeed="max" arrivalLane="1" arrivalPos="7.27">
        <route edges="gneE91 edge-east-EN -gneE140 -gneE138 -gneE137 -gneE135 gneE110 gneE140 edge-north-NW edge-west-WS"/>
    </vehicle>
    <vehicle id="-flow-random-route-107bf62e-f937-4d63-9a0a-619a0e13b100-1102043599956543472-6-0.2" type="actor-car-3260909167279537147" depart="240.00" departLane="0" departPos="122.31" departSpeed="max" arrivalLane="0" arrivalPos="45.19">
        <route edges="-gneE110 gneE135 -gneE129 -gneE125 -gneE114 gneE135 gneE137 gneE138 gneE104 gneE105"/>
    </vehicle>
    <vehicle id="-flow-random-route-11cfb0f4-3c78-4edd-a4b8-2ac7fc4641eb-1102043599956543472-18-0.2" type="actor-car-3260909167279537147" depart="240.00" departLane="0" departPos="11.08" departSpeed="max" arrivalLane="0" arrivalPos="43.83">
        <route edges="edge-north-NW edge-west-WS edge-south-SE edge-east-EN edge-north-NW edge-west-WS gneE143 gneE144 gneE124 gneE124.71"/>
    </vehicle>
    <vehicle id="-flow-random-route-122976d7-b917-4d03-af0f-e6392eebeed8-1102043599956543472-5-0.2" type="actor-car-3260909167279537147" depart="240.00" departLane="0" departPos="46.10" departSpeed="max" arrivalLane="1" arrivalPos="10.42">
        <route edges="gneE100 gneE91 edge-east-EN"/>
    </vehicle>
    <vehicle id="-flow-random-route-20c076e1-2dea-4759-a8ec-c23442e052ad-1102043599956543472-17-0.2" type="actor-car-3260909167279537147" depart="240.00" departLane="0" departPos="6.07" departSpeed="max" arrivalLane="0" arrivalPos="91.54">
        <route edges="gneE144 gneE100 gneE91 edge-east-EN -gneE140 -gneE138 -gneE137 -gneE129 -gneE125 -gneE114"/>
    </vehicle>
    <vehicle id="-flow-random-route-21ae18be-15dd-46f2-ad92-ca3aa9dca7a1-1102043599956543472-29-0.2" type="actor-car-3260909167279537147" depart="240.00" departLane="1" departPos="64.96" departSpeed="max" arrivalLane="1" arrivalPos="39.29">
        <route edges="gneE100 gneE91 edge-east-EN edge-north-NW edge-west-WS edge-south-SE edge-east-EN edge-north-NW edge-west-WS gneE143"/>
    </vehicle>
    <vehicle id="-flow-random-route-29746592-67ca-4ebe-b8fd-31d3e456dad5-1102043599956543472-25-0.2" type="actor-car-3260909167279537147" depart="240.00" departLane="1" departPos="20.49" departSpeed="max" arrivalLane="0" arrivalPos="8.84">
        <route edges="gneE161 gneE162 gneE124 gneE124.71 gneE114 gneE125 gneE129 gneE137 gneE138 gneE140"/>
    </vehicle>
    <vehicle id="-flow-random-route-32a7592b-3aad-4318-8cd2-f8081d3937eb-1102043599956543472-4-0.2" type="actor-car-3260909167279537147" depart="240.00" departLane="0" departPos="21.79" departSpeed="max" arrivalLane="0" arrivalPos="66.21">
        <route edges="-gneE140 gneE104 gneE105 edge-west-WS gneE143 gneE145 gneE146 gneE148 -gneE114 -gneE124"/>
    </vehicle>
    <vehicle id="-flow-random-route-36904c71-aab2-4621-9d4a-32934206eaa4-1102043599956543472-10-0.2" type="actor-car-3260909167279537147" depart="240.00" departLane="0" departPos="47.44" departSpeed="max" arrivalLane="0" arrivalPos="50.54">
        <route edges="gneE124 gneE124.71 gneE114 gneE125"/>
    </vehicle>
    <vehicle id="-flow-random-route-5fac8177-a89a-4ed3-b396-867c140fb2ef-1102043599956543472-3-0.2" type="actor-car-3260909167279537147" depart="240.00" departLane="1" departPos="21.25" departSpeed="max" arrivalLane="1" arrivalPos="1.05">
        <route edges="gneE105 edge-west-WS gneE143 gneE145 gneE146 gneE148 -gneE114 -gneE124 gneE100 gneE91"/>
    </vehicle>
    <vehicle id="-flow-random-route-62450f43-fd61-450c-b420-74d3cb3e914e-1102043599956543472-22-0.2" type="actor-car-3260909167279537147" depart="240.00" departLane="0" departPos="55.81" departSpeed="max" arrivalLane="0" arrivalPos="32.44">
        <route edges="gneE129 -gneE135"/>
    </vehicle>
    <vehicle id="-flow-random-route-6268f714-15a6-472a-b8a5-4614d40bc680-1102043599956543472-27-0.2" type="actor-car-3260909167279537147" depart="240.00" departLane="0" departPos="53.80" departSpeed="max" arrivalLane="0" arrivalPos="7.20">
        <route edges="gneE124.71 gneE135 gneE137 gneE138 gneE104 gneE105 edge-west-WS gneE143 gneE145 gneE146"/>
    </vehicle>
    <vehicle id="-flow-random-route-6296a0cf-ddaf-4438-b41c-b114cb8d3e8e-1102043599956543472-16-0.2" type="actor-car-3260909167279537147" depart="240.00" departLane="0" departPos="53.29" departSpeed="max" arrivalLane="0" arrivalPos="75.48">
        <route edges="gneE100 gneE91 edge-east-EN edge-north-NW edge-west-WS gneE143 gneE145 gneE146 gneE148 -gneE114"/>
    </vehicle>
    <vehicle id="-flow-random-route-6a91f60b-abe8-4eca-b4d6-a79b0ae4c3dd-1102043599956543472-12-0.2" type="actor-car-3260909167279537147" depart="240.00" departLane="0" departPos="15.02" departSpeed="max" arrivalLane="0" arrivalPos="21.79">
        <route edges="gneE145 gneE146 gneE161 gneE164 gneE124.71 gneE135 gneE137 gneE138 gneE104 gneE105"/>
    </vehicle>
    <vehicle id="-flow-random-route-7ff8aa3a-cc95-403f-ab14-c07bfcc9d51a-1102043599956543472-28-0.2" type="actor-car-3260909167279537147" depart="240.00" departLane="0" departPos="111.79" departSpeed="max" arrivalLane="0" arrivalPos="23.10">
        <route edges="-gneE137 -gneE129 -gneE125 -gneE114"/>
    </vehicle>
    <vehicle id="-flow-random-route-80407f2a-88a9-41cd-8ca8-a60e86f28806-1102043599956543472-9-0.2" type="actor-car-3260909167279537147" depart="240.00" departLane="1" departPos="7.78" departSpeed="max" arrivalLane="1" arrivalPos="5.64">
        <route edges="gneE104 gneE105 edge-west-WS gneE143 gneE145 gneE146 gneE161 gneE162 gneE100 gneE91"/>
    </vehicle>
    <vehicle id="-flow-random-route-89682a0b-264b-4bd8-9786-5e82102fce94-1102043599956543472-7-0.2" type="actor-car-3260909167279537147" depart="240.00" departLane="1" departPos="85.84" departSpeed="max" arrivalLane="0" arrivalPos="55.00">
        <route edges="gneE105 edge-west-WS gneE143 gneE144 gneE124 gneE124.71 gneE114 gneE125 gneE129 -gneE135"/>