<?xml version="1.0" encoding="UTF-8"?>

<!-- generated on Fri Sep 18 07:03:11 2020 by Eclipse SUMO duarouter Version 1.6.0
<configuration xmlns:xsi="http://www.w3.org/2001/XMLSchema-instance" xsi:noNamespaceSchemaLocation="http://sumo.dlr.de/xsd/duarouterConfiguration.xsd">

    <input>
        <net-file value="dataset_public/all_loop/all_loop_d/map.net.xml"/>
        <route-files value="/tmp/tmp3zcf2fvs/trips.trips.xml"/>
    </input>

    <output>
        <output-file value="dataset_public/all_loop/all_loop_d/traffic/30_patient_car.rou.xml"/>
        <alternatives-output value="dataset_public/all_loop/all_loop_d/traffic/30_patient_car.rou.alt.xml"/>
    </output>

    <processing>
        <unsorted-input value="true"/>
        <repair value="true"/>
    </processing>

    <report>
        <error-log value="/tmp/smarts/_duarouter_routing/traffic/30_patient_car.log"/>
        <no-step-log value="true"/>
    </report>

    <random_number>
        <seed value="42"/>
    </random_number>

</configuration>
-->

<routes xmlns:xsi="http://www.w3.org/2001/XMLSchema-instance" xsi:noNamespaceSchemaLocation="http://sumo.dlr.de/xsd/routes_file.xsd">
    <vType id="actor-car--6872195336202556943" minGap="2.50" speedFactor="normc(0.50,0.20,0.20,2.00)" vClass="passenger" impatience="0.50" lcCooperative="0.5" lcImpatience="0" jmDriveAfterYellowTime="1.0" accel="2.6" decel="4.5" sigma="0.5"/>
    <vehicle id="-flow-random-route-07e25dad-6039-40a9-a13e-d2ed349b086e-2129815506041557289-15-0.0" type="actor-car--6872195336202556943" depart="0.00" departLane="0" departPos="111.79" departSpeed="max" arrivalLane="0" arrivalPos="23.10">
        <route edges="-gneE137 -gneE129 -gneE125 -gneE114"/>
    </vehicle>
    <vehicle id="-flow-random-route-18c59424-b4b6-425d-9a78-77f18dce81cb-2129815506041557289-17-0.0" type="actor-car--6872195336202556943" depart="0.00" departLane="0" departPos="31.41" departSpeed="max" arrivalLane="0" arrivalPos="63.93">
        <route edges="gneE145 gneE146 gneE148 gneE125 gneE129 gneE137 gneE138 gneE140 edge-north-NW edge-west-WS"/>
    </vehicle>
    <vehicle id="-flow-random-route-21eb5545-a9d5-4883-9bc6-7711fe4335ed-2129815506041557289-20-0.0" type="actor-car--6872195336202556943" depart="0.00" departLane="1" departPos="7.78" departSpeed="max" arrivalLane="1" arrivalPos="5.64">
        <route edges="gneE104 gneE105 edge-west-WS gneE143 gneE145 gneE146 gneE161 gneE162 gneE100 gneE91"/>
    </vehicle>
    <vehicle id="-flow-random-route-230a3cbe-0eed-4a03-9b70-a7c4acb0c88a-2129815506041557289-9-0.0" type="actor-car--6872195336202556943" depart="0.00" departLane="0" departPos="1.73" departSpeed="max" arrivalLane="1" arrivalPos="7.27">
        <route edges="gneE91 edge-east-EN -gneE140 -gneE138 -gneE137 -gneE135 gneE110 gneE140 edge-north-NW edge-west-WS"/>
    </vehicle>
    <vehicle id="-flow-random-route-3f7e3c16-c88f-46a0-be74-dc8b3e8ae4e3-2129815506041557289-7-0.0" type="actor-car--6872195336202556943" depart="0.00" departLane="0" departPos="122.31" departSpeed="max" arrivalLane="0" arrivalPos="45.19">
        <route edges="-gneE110 gneE135 -gneE129 -gneE125 -gneE114 gneE135 gneE137 gneE138 gneE104 gneE105"/>
    </vehicle>
    <vehicle id="-flow-random-route-474a50c2-b2cb-4d0e-9bf0-2a04cd901afc-2129815506041557289-28-0.0" type="actor-car--6872195336202556943" depart="0.00" departLane="0" departPos="15.02" departSpeed="max" arrivalLane="0" arrivalPos="21.79">
        <route edges="gneE145 gneE146 gneE161 gneE164 gneE124.71 gneE135 gneE137 gneE138 gneE104 gneE105"/>
    </vehicle>
    <vehicle id="-flow-random-route-48a1c7b0-bf30-447b-ae3a-a2e36b700c66-2129815506041557289-14-0.0" type="actor-car--6872195336202556943" depart="0.00" departLane="0" departPos="67.76" departSpeed="max" arrivalLane="1" arrivalPos="29.97">
        <route edges="gneE138 -gneE110 gneE135 -gneE129 -gneE125 -gneE114 -gneE124 gneE100 gneE91 edge-east-EN"/>
    </vehicle>
    <vehicle id="-flow-random-route-4921172d-cdc0-410b-ba35-bc67dfc52b91-2129815506041557289-25-0.0" type="actor-car--6872195336202556943" depart="0.00" departLane="0" departPos="0.41" departSpeed="max" arrivalLane="0" arrivalPos="1.84">
        <route edges="gneE140 edge-north-NW edge-west-WS edge-south-SE edge-east-EN -gneE140 -gneE110 -gneE124 gneE100 gneE91"/>
    </vehicle>
    <vehicle id="-flow-random-route-55756e69-a0a8-42a8-9c09-4487b565e27c-2129815506041557289-22-0.0" type="actor-car--6872195336202556943" depart="0.00" departLane="0" departPos="23.83" departSpeed="max" arrivalLane="0" arrivalPos="82.00">
        <route edges="-gneE124 gneE100 gneE91 edge-east-EN edge-north-NW edge-west-WS gneE143 gneE145 gneE146 gneE148"/>
    </vehicle>
    <vehicle id="-flow-random-route-572fcbd3-43eb-4178-934d-5b6e0f3170ac-2129815506041557289-29-0.0" type="actor-car--6872195336202556943" depart="0.00" departLane="1" departPos="12.70" departSpeed="max" arrivalLane="1" arrivalPos="4.15">
        <route edges="edge-west-WS edge-south-SE edge-east-EN edge-north-NW edge-west-WS edge-south-SE edge-east-EN edge-north-NW edge-west-WS gneE143"/>
    </vehicle>
    <vehicle id="-flow-random-route-585c564c-a0db-4f72-a862-db8f118501a9-2129815506041557289-19-0.0" type="actor-car--6872195336202556943" depart="0.00" departLane="0" departPos="14.67" departSpeed="max" arrivalLane="1" arrivalPos="1.13">
        <route edges="gneE135 gneE137 gneE138 gneE140 edge-north-NW edge-west-WS gneE143 gneE144 gneE100 gneE91"/>
    </vehicle>
    <vehicle id="-flow-random-route-58beb1ab-726a-4c6d-a61c-ebb43e96ec3e-2129815506041557289-8-0.0" type="actor-car--6872195336202556943" depart="0.00" departLane="1" departPos="21.25" departSpeed="max" arrivalLane="1" arrivalPos="1.05">
        <route edges="gneE105 edge-west-WS gneE143 gneE145 gneE146 gneE148 -gneE114 -gneE124 gneE100 gneE91"/>
    </vehicle>
    <vehicle id="-flow-random-route-5ac68183-ddde-4e0b-83be-ab37d1bb5b46-2129815506041557289-27-0.0" type="actor-car--6872195336202556943" depart="0.00" departLane="1" departPos="85.84" departSpeed="max" arrivalLane="0" arrivalPos="55.00">
        <route edges="gneE105 edge-west-WS gneE143 gneE144 gneE124 gneE124.71 gneE114 gneE125 gneE129 -gneE135"/>
    </vehicle>
    <vehicle id="-flow-random-route-61feaec4-b9b1-419c-af1f-477ec6fe71b3-2129815506041557289-5-0.0" type="actor-car--6872195336202556943" depart="0.00" departLane="0" departPos="47.44" departSpeed="max" arrivalLane="0" arrivalPos="50.54">
        <route edges="gneE124 gneE124.71 gneE114 gneE125"/>
    </vehicle>
    <vehicle id="-flow-random-route-6e30c004-5fc7-4191-85fd-3f91fba19269-2129815506041557289-23-0.0" type="actor-car--6872195336202556943" depart="0.00" departLane="1" departPos="64.96" departSpeed="max" arrivalLane="1" arrivalPos="39.29">
        <route edges="gneE100 gneE91 edge-east-EN edge-north-NW edge-west-WS edge-south-SE edge-east-EN edge-north-NW edge-west-WS gneE143"/>
    </vehicle>
    <vehicle id="-flow-random-route-71988a56-7754-46cc-b91e-501aa76d02e5-2129815506041557289-21-0.0" type="actor-car--6872195336202556943" depart="0.00" departLane="0" departPos="21.79" departSpeed="max" arrivalLane="0" arrivalPos="66.21">
        <route edges="-gneE140 gneE104 gneE105 edge-west-WS gneE143 gneE145 gneE146 gneE148 -gneE114 -gneE124"/>
    </vehicle>
    <vehicle id="-flow-random-route-73339bd6-bf10-458c-be55-d3a74b464be8-2129815506041557289-4-0.0" type="actor-car--6872195336202556943" depart="0.00" departLane="0" departPos="11.08" departSpeed="max" arrivalLane="0" arrivalPos="43.83">
        <route edges="edge-north-NW edge-west-WS edge-south-SE edge-east-EN edge-north-NW edge-west-WS gneE143 gneE144 gneE124 gneE124.71"/>
    </vehicle>
    <vehicle id="-flow-random-route-814ddad3-3a01-4650-a524-6d6ccd554663-2129815506041557289-18-0.0" type="actor-car--6872195336202556943" depart="0.00" departLane="1" departPos="35.27" departSpeed="max" arrivalLane="0" arrivalPos="77.10">
        <route edges="gneE104 gneE105 edge-west-WS gneE143 gneE145 gneE146 gneE161 gneE164 gneE124.71 gneE110"/>
    </vehicle>
    <vehicle id="-flow-random-route-832ae9a4-a0a3-4cec-a6c4-5542a234062a-2129815506041557289-10-0.0" type="actor-car--6872195336202556943" depart="0.00" departLane="0" departPos="80.10" departSpeed="max" arrivalLane="1" arrivalPos="29.06">
        <route edges="-gneE129 -gneE125 -gneE114 gneE135 gneE137 gneE138 gneE140 edge-north-NW edge-west-WS gneE143"/>
    </vehicle>
    <vehicle id="-flow-random-route-925270f5-dde5-4b2f-8996-cbd7bc07a705-2129815506041557289-6-0.0" type="actor-car--6872195336202556943" depart="0.00" departLane="0" departPos="30.81" departSpeed="max" arrivalLane="0" arrivalPos="9.50">
        <route edges="edge-south-SE edge-east-EN edge-north-NW edge-west-WS gneE143 gneE144 gneE124 gneE124.71 gneE110 gneE140"/>
    </vehicle>
    <vehicle id="-flow-random-route-9fbc66c6-87c7-46d3-93fb-c45f2df0a6f6-2129815506041557289-12-0.0" type="actor-car--6872195336202556943" depart="0.00" departLane="0" departPos="111.08" departSpeed="max" arrivalLane="0" arrivalPos="56.32">
        <route edges="gneE148 gneE125 gneE129 -gneE135 gneE114 gneE125 gneE129 -gneE135 -gneE124 gneE100"/>
    </vehicle>
    <vehicle id="-flow-random-route-a248a11c-aa24-40d9-b14e-b3528008119c-2129815506041557289-0-0.0" type="actor-car--6872195336202556943" depart="0.00" departLane="0" departPos="46.10" departSpeed="max" arrivalLane="1" arrivalPos="10.42">
        <route edges="gneE100 gneE91 edge-east-EN"/>
    </vehicle>
    <vehicle id="-flow-random-route-af7cbee0-74e8-4c5f-bc1b-fd59286004b9-2129815506041557289-24-0.0" type="actor-car--6872195336202556943" depart="0.00" departLane="0" departPos="53.29" departSpeed="max" arrivalLane="0" arrivalPos="75.48">
        <route edges="gneE100 gneE91 edge-east-EN edge-north-NW edge-west-WS gneE143 gneE145 gneE146 gneE148 -gneE114"/>
    </vehicle>
    <vehicle id="-flow-random-route-afdc8c41-e713-4a97-a1cc-cdfaf9d594ea-2129815506041557289-3-0.0" type="actor-car--6872195336202556943" depart="0.00" departLane="0" departPos="6.07" departSpeed="max" arrivalLane="0" arrivalPos="91.54">
        <route edges="gneE144 gneE100 gneE91 edge-east-EN -gneE140 -gneE138 -gneE137 -gneE129 -gneE125 -gneE114"/>
    </vehicle>
    <vehicle id="-flow-random-route-b61abbcb-53c4-4614-88f3-9f14d701bdba-2129815506041557289-11-0.0" type="actor-car--6872195336202556943" depart="0.00" departLane="0" departPos="21.09" departSpeed="max" arrivalLane="0" arrivalPos="54.14">
        <route edges="gneE114 gneE125 gneE129 gneE137 gneE138 -gneE110 gneE135 -gneE129 -gneE125 -gneE114"/>
    </vehicle>
    <vehicle id="-flow-random-route-be45804d-d758-4bbb-9aaa-c8a0da589fd4-2129815506041557289-13-0.0" type="actor-car--6872195336202556943" depart="0.00" departLane="0" departPos="49.79" departSpeed="max" arrivalLane="0" arrivalPos="2.95">
        <route edges="gneE138 gneE104 gneE105 edge-west-WS edge-south-SE edge-east-EN"/>
    </vehicle>
    <vehicle id="-flow-random-route-e2ef5319-7697-4db8-83a7-07f2874ea636-2129815506041557289-1-0.0" type="actor-car--6872195336202556943" depart="0.00" departLane="1" departPos="20.49" departSpeed="max" arrivalLane="0" arrivalPos="8.84">
        <route edges="gneE161 gneE162 gneE124 gneE124.71 gneE114 gneE125 gneE129 gneE137 gneE138 gneE140"/>
    </vehicle>
    <vehicle id="-flow-random-route-e6eeaaac-c168-4970-84e5-b3b543e7a743-2129815506041557289-26-0.0" type="actor-car--6872195336202556943" depart="0.00" departLane="1" departPos="33.12" departSpeed="max" arrivalLane="0" arrivalPos="19.84">
        <route edges="gneE143 gneE145 gneE146 gneE148 gneE125 gneE129 gneE137 gneE138 gneE104 gneE105"/>
    </vehicle>
    <vehicle id="-flow-random-route-eb3cdee0-bc6c-4d23-9576-76cf6ae0383c-2129815506041557289-16-0.0" type="actor-car--6872195336202556943" depart="0.00" departLane="0" departPos="53.80" departSpeed="max" arrivalLane="0" arrivalPos="7.20">
        <route edges="gneE124.71 gneE135 gneE137 gneE138 gneE104 gneE105 edge-west-WS gneE143 gneE145 gneE146"/>
    </vehicle>
    <vehicle id="-flow-random-route-f9836fa9-1a02-4800-a7ff-095e8903828e-2129815506041557289-2-0.0" type="actor-car--6872195336202556943" depart="0.00" departLane="0" departPos="55.81" departSpeed="max" arrivalLane="0" arrivalPos="32.44">
        <route edges="gneE129 -gneE135"/>
    </vehicle>
    <vehicle id="-flow-random-route-07e25dad-6039-40a9-a13e-d2ed349b086e-2129815506041557289-15-0.1" type="actor-car--6872195336202556943" depart="120.00" departLane="0" departPos="111.79" departSpeed="max" arrivalLane="0" arrivalPos="23.10">
        <route edges="-gneE137 -gneE129 -gneE125 -gneE114"/>
    </vehicle>
    <vehicle id="-flow-random-route-18c59424-b4b6-425d-9a78-77f18dce81cb-2129815506041557289-17-0.1" type="actor-car--6872195336202556943" depart="120.00" departLane="0" departPos="31.41" departSpeed="max" arrivalLane="0" arrivalPos="63.93">
        <route edges="gneE145 gneE146 gneE148 gneE125 gneE129 gneE137 gneE138 gneE140 edge-north-NW edge-west-WS"/>
    </vehicle>
    <vehicle id="-flow-random-route-21eb5545-a9d5-4883-9bc6-7711fe4335ed-2129815506041557289-20-0.1" type="actor-car--6872195336202556943" depart="120.00" departLane="1" departPos="7.78" departSpeed="max" arrivalLane="1" arrivalPos="5.64">
        <route edges="gneE104 gneE105 edge-west-WS gneE143 gneE145 gneE146 gneE161 gneE162 gneE100 gneE91"/>
    </vehicle>
    <vehicle id="-flow-random-route-230a3cbe-0eed-4a03-9b70-a7c4acb0c88a-2129815506041557289-9-0.1" type="actor-car--6872195336202556943" depart="120.00" departLane="0" departPos="1.73" departSpeed="max" arrivalLane="1" arrivalPos="7.27">
        <route edges="gneE91 edge-east-EN -gneE140 -gneE138 -gneE137 -gneE135 gneE110 gneE140 edge-north-NW edge-west-WS"/>
    </vehicle>
    <vehicle id="-flow-random-route-3f7e3c16-c88f-46a0-be74-dc8b3e8ae4e3-2129815506041557289-7-0.1" type="actor-car--6872195336202556943" depart="120.00" departLane="0" departPos="122.31" departSpeed="max" arrivalLane="0" arrivalPos="45.19">
        <route edges="-gneE110 gneE135 -gneE129 -gneE125 -gneE114 gneE135 gneE137 gneE138 gneE104 gneE105"/>
    </vehicle>
    <vehicle id="-flow-random-route-474a50c2-b2cb-4d0e-9bf0-2a04cd901afc-2129815506041557289-28-0.1" type="actor-car--6872195336202556943" depart="120.00" departLane="0" departPos="15.02" departSpeed="max" arrivalLane="0" arrivalPos="21.79">
        <route edges="gneE145 gneE146 gneE161 gneE164 gneE124.71 gneE135 gneE137 gneE138 gneE104 gneE105"/>
    </vehicle>
    <vehicle id="-flow-random-route-48a1c7b0-bf30-447b-ae3a-a2e36b700c66-2129815506041557289-14-0.1" type="actor-car--6872195336202556943" depart="120.00" departLane="0" departPos="67.76" departSpeed="max" arrivalLane="1" arrivalPos="29.97">
        <route edges="gneE138 -gneE110 gneE135 -gneE129 -gneE125 -gneE114 -gneE124 gneE100 gneE91 edge-east-EN"/>
    </vehicle>
    <vehicle id="-flow-random-route-4921172d-cdc0-410b-ba35-bc67dfc52b91-2129815506041557289-25-0.1" type="actor-car--6872195336202556943" depart="120.00" departLane="0" departPos="0.41" departSpeed="max" arrivalLane="0" arrivalPos="1.84">
        <route edges="gneE140 edge-north-NW edge-west-WS edge-south-SE edge-east-EN -gneE140 -gneE110 -gneE124 gneE100 gneE91"/>
    </vehicle>
    <vehicle id="-flow-random-route-55756e69-a0a8-42a8-9c09-4487b565e27c-2129815506041557289-22-0.1" type="actor-car--6872195336202556943" depart="120.00" departLane="0" departPos="23.83" departSpeed="max" arrivalLane="0" arrivalPos="82.00">
        <route edges="-gneE124 gneE100 gneE91 edge-east-EN edge-north-NW edge-west-WS gneE143 gneE145 gneE146 gneE148"/>
    </vehicle>
    <vehicle id="-flow-random-route-572fcbd3-43eb-4178-934d-5b6e0f3170ac-2129815506041557289-29-0.1" type="actor-car--6872195336202556943" depart="120.00" departLane="1" departPos="12.70" departSpeed="max" arrivalLane="1" arrivalPos="4.15">
        <route edges="edge-west-WS edge-south-SE edge-east-EN edge-north-NW edge-west-WS edge-south-SE edge-east-EN edge-north-NW edge-west-WS gneE143"/>
    </vehicle>
    <vehicle id="-flow-random-route-585c564c-a0db-4f72-a862-db8f118501a9-2129815506041557289-19-0.1" type="actor-car--6872195336202556943" depart="120.00" departLane="0" departPos="14.67" departSpeed="max" arrivalLane="1" arrivalPos="1.13">
        <route edges="gneE135 gneE137 gneE138 gneE140 edge-north-NW edge-west-WS gneE143 gneE144 gneE100 gneE91"/>
    </vehicle>
    <vehicle id="-flow-random-route-58beb1ab-726a-4c6d-a61c-ebb43e96ec3e-2129815506041557289-8-0.1" type="actor-car--6872195336202556943" depart="120.00" departLane="1" departPos="21.25" departSpeed="max" arrivalLane="1" arrivalPos="1.05">
        <route edges="gneE105 edge-west-WS gneE143 gneE145 gneE146 gneE148 -gneE114 -gneE124 gneE100 gneE91"/>
    </vehicle>
    <vehicle id="-flow-random-route-5ac68183-ddde-4e0b-83be-ab37d1bb5b46-2129815506041557289-27-0.1" type="actor-car--6872195336202556943" depart="120.00" departLane="1" departPos="85.84" departSpeed="max" arrivalLane="0" arrivalPos="55.00">
        <route edges="gneE105 edge-west-WS gneE143 gneE144 gneE124 gneE124.71 gneE114 gneE125 gneE129 -gneE135"/>
    </vehicle>
    <vehicle id="-flow-random-route-61feaec4-b9b1-419c-af1f-477ec6fe71b3-2129815506041557289-5-0.1" type="actor-car--6872195336202556943" depart="120.00" departLane="0" departPos="47.44" departSpeed="max" arrivalLane="0" arrivalPos="50.54">
        <route edges="gneE124 gneE124.71 gneE114 gneE125"/>
    </vehicle>
    <vehicle id="-flow-random-route-6e30c004-5fc7-4191-85fd-3f91fba19269-2129815506041557289-23-0.1" type="actor-car--6872195336202556943" depart="120.00" departLane="1" departPos="64.96" departSpeed="max" arrivalLane="1" arrivalPos="39.29">
        <route edges="gneE100 gneE91 edge-east-EN edge-north-NW edge-west-WS edge-south-SE edge-east-EN edge-north-NW edge-west-WS gneE143"/>
    </vehicle>
    <vehicle id="-flow-random-route-71988a56-7754-46cc-b91e-501aa76d02e5-2129815506041557289-21-0.1" type="actor-car--6872195336202556943" depart="120.00" departLane="0" departPos="21.79" departSpeed="max" arrivalLane="0" arrivalPos="66.21">
        <route edges="-gneE140 gneE104 gneE105 edge-west-WS gneE143 gneE145 gneE146 gneE148 -gneE114 -gneE124"/>
    </vehicle>
    <vehicle id="-flow-random-route-73339bd6-bf10-458c-be55-d3a74b464be8-2129815506041557289-4-0.1" type="actor-car--6872195336202556943" depart="120.00" departLane="0" departPos="11.08" departSpeed="max" arrivalLane="0" arrivalPos="43.83">
        <route edges="edge-north-NW edge-west-WS edge-south-SE edge-east-EN edge-north-NW edge-west-WS gneE143 gneE144 gneE124 gneE124.71"/>
    </vehicle>
    <vehicle id="-flow-random-route-814ddad3-3a01-4650-a524-6d6ccd554663-2129815506041557289-18-0.1" type="actor-car--6872195336202556943" depart="120.00" departLane="1" departPos="35.27" departSpeed="max" arrivalLane="0" arrivalPos="77.10">
        <route edges="gneE104 gneE105 edge-west-WS gneE143 gneE145 gneE146 gneE161 gneE164 gneE124.71 gneE110"/>
    </vehicle>
    <vehicle id="-flow-random-route-832ae9a4-a0a3-4cec-a6c4-5542a234062a-2129815506041557289-10-0.1" type="actor-car--6872195336202556943" depart="120.00" departLane="0" departPos="80.10" departSpeed="max" arrivalLane="1" arrivalPos="29.06">
        <route edges="-gneE129 -gneE125 -gneE114 gneE135 gneE137 gneE138 gneE140 edge-north-NW edge-west-WS gneE143"/>
    </vehicle>
    <vehicle id="-flow-random-route-925270f5-dde5-4b2f-8996-cbd7bc07a705-2129815506041557289-6-0.1" type="actor-car--6872195336202556943" depart="120.00" departLane="0" departPos="30.81" departSpeed="max" arrivalLane="0" arrivalPos="9.50">
        <route edges="edge-south-SE edge-east-EN edge-north-NW edge-west-WS gneE143 gneE144 gneE124 gneE124.71 gneE110 gneE140"/>
    </vehicle>
    <vehicle id="-flow-random-route-9fbc66c6-87c7-46d3-93fb-c45f2df0a6f6-2129815506041557289-12-0.1" type="actor-car--6872195336202556943" depart="120.00" departLane="0" departPos="111.08" departSpeed="max" arrivalLane="0" arrivalPos="56.32">
        <route edges="gneE148 gneE125 gneE129 -gneE135 gneE114 gneE125 gneE129 -gneE135 -gneE124 gneE100"/>
    </vehicle>
    <vehicle id="-flow-random-route-a248a11c-aa24-40d9-b14e-b3528008119c-2129815506041557289-0-0.1" type="actor-car--6872195336202556943" depart="120.00" departLane="0" departPos="46.10" departSpeed="max" arrivalLane="1" arrivalPos="10.42">
        <route edges="gneE100 gneE91 edge-east-EN"/>
    </vehicle>
    <vehicle id="-flow-random-route-af7cbee0-74e8-4c5f-bc1b-fd59286004b9-2129815506041557289-24-0.1" type="actor-car--6872195336202556943" depart="120.00" departLane="0" departPos="53.29" departSpeed="max" arrivalLane="0" arrivalPos="75.48">
        <route edges="gneE100 gneE91 edge-east-EN edge-north-NW edge-west-WS gneE143 gneE145 gneE146 gneE148 -gneE114"/>
    </vehicle>
    <vehicle id="-flow-random-route-afdc8c41-e713-4a97-a1cc-cdfaf9d594ea-2129815506041557289-3-0.1" type="actor-car--6872195336202556943" depart="120.00" departLane="0" departPos="6.07" departSpeed="max" arrivalLane="0" arrivalPos="91.54">
        <route edges="gneE144 gneE100 gneE91 edge-east-EN -gneE140 -gneE138 -gneE137 -gneE129 -gneE125 -gneE114"/>
    </vehicle>
    <vehicle id="-flow-random-route-b61abbcb-53c4-4614-88f3-9f14d701bdba-2129815506041557289-11-0.1" type="actor-car--6872195336202556943" depart="120.00" departLane="0" departPos="21.09" departSpeed="max" arrivalLane="0" arrivalPos="54.14">
        <route edges="gneE114 gneE125 gneE129 gneE137 gneE138 -gneE110 gneE135 -gneE129 -gneE125 -gneE114"/>
    </vehicle>
    <vehicle id="-flow-random-route-be45804d-d758-4bbb-9aaa-c8a0da589fd4-2129815506041557289-13-0.1" type="actor-car--6872195336202556943" depart="120.00" departLane="0" departPos="49.79" departSpeed="max" arrivalLane="0" arrivalPos="2.95">
        <route edges="gneE138 gneE104 gneE105 edge-west-WS edge-south-SE edge-east-EN"/>
    </vehicle>
    <vehicle id="-flow-random-route-e2ef5319-7697-4db8-83a7-07f2874ea636-2129815506041557289-1-0.1" type="actor-car--6872195336202556943" depart="120.00" departLane="1" departPos="20.49" departSpeed="max" arrivalLane="0" arrivalPos="8.84">
        <route edges="gneE161 gneE162 gneE124 gneE124.71 gneE114 gneE125 gneE129 gneE137 gneE138 gneE140"/>
    </vehicle>
    <vehicle id="-flow-random-route-e6eeaaac-c168-4970-84e5-b3b543e7a743-2129815506041557289-26-0.1" type="actor-car--6872195336202556943" depart="120.00" departLane="1" departPos="33.12" departSpeed="max" arrivalLane="0" arrivalPos="19.84">
        <route edges="gneE143 gneE145 gneE146 gneE148 gneE125 gneE129 gneE137 gneE138 gneE104 gneE105"/>
    </vehicle>
    <vehicle id="-flow-random-route-eb3cdee0-bc6c-4d23-9576-76cf6ae0383c-2129815506041557289-16-0.1" type="actor-car--6872195336202556943" depart="120.00" departLane="0" departPos="53.80" departSpeed="max" arrivalLane="0" arrivalPos="7.20">
        <route edges="gneE124.71 gneE135 gneE137 gneE138 gneE104 gneE105 edge-west-WS gneE143 gneE145 gneE146"/>
    </vehicle>
    <vehicle id="-flow-random-route-f9836fa9-1a02-4800-a7ff-095e8903828e-2129815506041557289-2-0.1" type="actor-car--6872195336202556943" depart="120.00" departLane="0" departPos="55.81" departSpeed="max" arrivalLane="0" arrivalPos="32.44">
        <route edges="gneE129 -gneE135"/>
    </vehicle>
    <vehicle id="-flow-random-route-07e25dad-6039-40a9-a13e-d2ed349b086e-2129815506041557289-15-0.2" type="actor-car--6872195336202556943" depart="240.00" departLane="0" departPos="111.79" departSpeed="max" arrivalLane="0" arrivalPos="23.10">
        <route edges="-gneE137 -gneE129 -gneE125 -gneE114"/>
    </vehicle>
    <vehicle id="-flow-random-route-18c59424-b4b6-425d-9a78-77f18dce81cb-2129815506041557289-17-0.2" type="actor-car--6872195336202556943" depart="240.00" departLane="0" departPos="31.41" departSpeed="max" arrivalLane="0" arrivalPos="63.93">
        <route edges="gneE145 gneE146 gneE148 gneE125 gneE129 gneE137 gneE138 gneE140 edge-north-NW edge-west-WS"/>
    </vehicle>
    <vehicle id="-flow-random-route-21eb5545-a9d5-4883-9bc6-7711fe4335ed-2129815506041557289-20-0.2" type="actor-car--6872195336202556943" depart="240.00" departLane="1" departPos="7.78" departSpeed="max" arrivalLane="1" arrivalPos="5.64">
        <route edges="gneE104 gneE105 edge-west-WS gneE143 gneE145 gneE146 gneE161 gneE162 gneE100 gneE91"/>
    </vehicle>
    <vehicle id="-flow-random-route-230a3cbe-0eed-4a03-9b70-a7c4acb0c88a-2129815506041557289-9-0.2" type="actor-car--6872195336202556943" depart="240.00" departLane="0" departPos="1.73" departSpeed="max" arrivalLane="1" arrivalPos="7.27">
        <route edges="gneE91 edge-east-EN -gneE140 -gneE138 -gneE137 -gneE135 gneE110 gneE140 edge-north-NW edge-west-WS"/>
    </vehicle>
    <vehicle id="-flow-random-route-3f7e3c16-c88f-46a0-be74-dc8b3e8ae4e3-2129815506041557289-7-0.2" type="actor-car--6872195336202556943" depart="240.00" departLane="0" departPos="122.31" departSpeed="max" arrivalLane="0" arrivalPos="45.19">
        <route edges="-gneE110 gneE135 -gneE129 -gneE125 -gneE114 gneE135 gneE137 gneE138 gneE104 gneE105"/>
    </vehicle>
    <vehicle id="-flow-random-route-474a50c2-b2cb-4d0e-9bf0-2a04cd901afc-2129815506041557289-28-0.2" type="actor-car--6872195336202556943" depart="240.00" departLane="0" departPos="15.02" departSpeed="max" arrivalLane="0" arrivalPos="21.79">
        <route edges="gneE145 gneE146 gneE161 gneE164 gneE124.71 gneE135 gneE137 gneE138 gneE104 gneE105"/>
    </vehicle>
    <vehicle id="-flow-random-route-48a1c7b0-bf30-447b-ae3a-a2e36b700c66-2129815506041557289-14-0.2" type="actor-car--6872195336202556943" depart="240.00" departLane="0" departPos="67.76" departSpeed="max" arrivalLane="1" arrivalPos="29.97">
        <route edges="gneE138 -gneE110 gneE135 -gneE129 -gneE125 -gneE114 -gneE124 gneE100 gneE91 edge-east-EN"/>
    </vehicle>
    <vehicle id="-flow-random-route-4921172d-cdc0-410b-ba35-bc67dfc52b91-2129815506041557289-25-0.2" type="actor-car--6872195336202556943" depart="240.00" departLane="0" departPos="0.41" departSpeed="max" arrivalLane="0" arrivalPos="1.84">
        <route edges="gneE140 edge-north-NW edge-west-WS edge-south-SE edge-east-EN -gneE140 -gneE110 -gneE124 gneE100 gneE91"/>
    </vehicle>
    <vehicle id="-flow-random-route-55756e69-a0a8-42a8-9c09-4487b565e27c-2129815506041557289-22-0.2" type="actor-car--6872195336202556943" depart="240.00" departLane="0" departPos="23.83" departSpeed="max" arrivalLane="0" arrivalPos="82.00">
        <route edges="-gneE124 gneE100 gneE91 edge-east-EN edge-north-NW edge-west-WS gneE143 gneE145 gneE146 gneE148"/>
    </vehicle>
    <vehicle id="-flow-random-route-572fcbd3-43eb-4178-934d-5b6e0f3170ac-2129815506041557289-29-0.2" type="actor-car--6872195336202556943" depart="240.00" departLane="1" departPos="12.70" departSpeed="max" arrivalLane="1" arrivalPos="4.15">
        <route edges="edge-west-WS edge-south-SE edge-east-EN edge-north-NW edge-west-WS edge-south-SE edge-east-EN edge-north-NW edge-west-WS gneE143"/>
    </vehicle>
    <vehicle id="-flow-random-route-585c564c-a0db-4f72-a862-db8f118501a9-2129815506041557289-19-0.2" type="actor-car--6872195336202556943" depart="240.00" departLane="0" departPos="14.67" departSpeed="max" arrivalLane="1" arrivalPos="1.13">
        <route edges="gneE135 gneE137 gneE138 gneE140 edge-north-NW edge-west-WS gneE143 gneE144 gneE100 gneE91"/>
    </vehicle>
    <vehicle id="-flow-random-route-58beb1ab-726a-4c6d-a61c-ebb43e96ec3e-2129815506041557289-8-0.2" type="actor-car--6872195336202556943" depart="240.00" departLane="1" departPos="21.25" departSpeed="max" arrivalLane="1" arrivalPos="1.05">
        <route edges="gneE105 edge-west-WS gneE143 gneE145 gneE146 gneE148 -gneE114 -gneE124 gneE100 gneE91"/>
    </vehicle>
    <vehicle id="-flow-random-route-5ac68183-ddde-4e0b-83be-ab37d1bb5b46-2129815506041557289-27-0.2" type="actor-car--6872195336202556943" depart="240.00" departLane="1" departPos="85.84" departSpeed="max" arrivalLane="0" arrivalPos="55.00">
        <route edges="gneE105 edge-west-WS gneE143 gneE144 gneE124 gneE124.71 gneE114 gneE125 gneE129 -gneE135"/>
    </vehicle>
    <vehicle id="-flow-random-route-61feaec4-b9b1-419c-af1f-477ec6fe71b3-2129815506041557289-5-0.2" type="actor-car--6872195336202556943" depart="240.00" departLane="0" departPos="47.44" departSpeed="max" arrivalLane="0" arrivalPos="50.54">
        <route edges="gneE124 gneE124.71 gneE114 gneE125"/>
    </vehicle>
    <vehicle id="-flow-random-route-6e30c004-5fc7-4191-85fd-3f91fba19269-2129815506041557289-23-0.2" type="actor-car--6872195336202556943" depart="240.00" departLane="1" departPos="64.96" departSpeed="max" arrivalLane="1" arrivalPos="39.29">
        <route edges="gneE100 gneE91 edge-east-EN edge-north-NW edge-west-WS edge-south-SE edge-east-EN edge-north-NW edge-west-WS gneE143"/>
    </vehicle>
    <vehicle id="-flow-random-route-71988a56-7754-46cc-b91e-501aa76d02e5-2129815506041557289-21-0.2" type="actor-car--6872195336202556943" depart="240.00" departLane="0" departPos="21.79" departSpeed="max" arrivalLane="0" arrivalPos="66.21">
        <route edges="-gneE140 gneE104 gneE105 edge-west-WS gneE143 gneE145 gneE146 gneE148 -gneE114 -gneE124"/>
    </vehicle>
    <vehicle id="-flow-random-route-73339bd6-bf10-458c-be55-d3a74b464be8-2129815506041557289-4-0.2" type="actor-car--6872195336202556943" depart="240.00" departLane="0" departPos="11.08" departSpeed="max" arrivalLane="0" arrivalPos="43.83">
        <route edges="edge-north-NW edge-west-WS edge-south-SE edge-east-EN edge-north-NW edge-west-WS gneE143 gneE144 gneE124 gneE124.71"/>
    </vehicle>
    <vehicle id="-flow-random-route-814ddad3-3a01-4650-a524-6d6ccd554663-2129815506041557289-18-0.2" type="actor-car--6872195336202556943" depart="240.00" departLane="1" departPos="35.27" departSpeed="max" arrivalLane="0" arrivalPos="77.10">
        <route edges="gneE104 gneE105 edge-west-WS gneE143 gneE145 gneE146 gneE161 gneE164 gneE124.71 gneE110"/>
    </vehicle>