<?xml version="1.0" encoding="UTF-8"?>

<!-- generated on Fri Sep 18 07:11:21 2020 by Eclipse SUMO duarouter Version 1.6.0
<configuration xmlns:xsi="http://www.w3.org/2001/XMLSchema-instance" xsi:noNamespaceSchemaLocation="http://sumo.dlr.de/xsd/duarouterConfiguration.xsd">

    <input>
        <net-file value="dataset_public/merge_loop/merge_b/map.net.xml"/>
        <route-files value="/tmp/tmpwum2qdzr/trips.trips.xml"/>
    </input>

    <output>
        <output-file value="dataset_public/merge_loop/merge_b/traffic/30_patient_car.rou.xml"/>
        <alternatives-output value="dataset_public/merge_loop/merge_b/traffic/30_patient_car.rou.alt.xml"/>
    </output>

    <processing>
        <unsorted-input value="true"/>
        <repair value="true"/>
    </processing>

    <report>
        <error-log value="/tmp/smarts/_duarouter_routing/traffic/30_patient_car.log"/>
        <no-step-log value="true"/>
    </report>

    <random_number>
        <seed value="42"/>
    </random_number>

</configuration>
-->

<routes xmlns:xsi="http://www.w3.org/2001/XMLSchema-instance" xsi:noNamespaceSchemaLocation="http://sumo.dlr.de/xsd/routes_file.xsd">
    <vType id="actor-car-4993974142308933428" minGap="2.50" speedFactor="normc(0.50,0.20,0.20,2.00)" vClass="passenger" impatience="0.50" lcCooperative="0.5" lcImpatience="0" jmDriveAfterYellowTime="1.0" accel="2.6" decel="4.5" sigma="0.5"/>
    <vehicle id="-flow-random-route-034dcaf0-9eff-41c2-8b63-7585447955ea--4616713243159281442-17-0.0" type="actor-car-4993974142308933428" depart="0.00" departLane="1" departPos="10.60" departSpeed="max" arrivalLane="1" arrivalPos="51.84">
        <route edges="gneE7.141 gneE8 gneE9 gneE2 gneE1 gneE1.12 gneE5 gneE7 gneE7.117 gneE10"/>
    </vehicle>
    <vehicle id="-flow-random-route-04df4b4a-d46c-4edc-999c-4b8d1ff21817--4616713243159281442-14-0.0" type="actor-car-4993974142308933428" depart="0.00" departLane="0" departPos="110.65" departSpeed="max" arrivalLane="1" arrivalPos="10.24">
        <route edges="gneE8 gneE9 gneE2"/>
    </vehicle>
    <vehicle id="-flow-random-route-05eaddeb-7304-49b7-a483-0f35ca8960d5--4616713243159281442-12-0.0" type="actor-car-4993974142308933428" depart="0.00" departLane="0" departPos="28.73" departSpeed="max" arrivalLane="1" arrivalPos="79.57">
        <route edges="gneE16 gneE7.117 gneE10"/>
    </vehicle>
    <vehicle id="-flow-random-route-18190756-6f23-49e3-a232-5013c76a7d4c--4616713243159281442-25-0.0" type="actor-car-4993974142308933428" depart="0.00" departLane="0" departPos="25.80" departSpeed="max" arrivalLane="0" arrivalPos="131.61">
        <route edges="gneE5 gneE7 gneE7.117 gneE7.141 gneE8 gneE9 gneE2 gneE1 gneE1.12 gneE5"/>
    </vehicle>
    <vehicle id="-flow-random-route-221b7a8d-9951-41a9-bd82-f68816cfe450--4616713243159281442-8-0.0" type="actor-car-4993974142308933428" depart="0.00" departLane="0" departPos="127.37" departSpeed="max" arrivalLane="0" arrivalPos="60.15">
        <route edges="gneE16 gneE7.117 gneE10 gneE3 gneE1 gneE16 gneE7.117 gneE7.141 gneE8 gneE9"/>
    </vehicle>
    <vehicle id="-flow-random-route-29b408c4-e577-4c45-a40d-99252d14f77e--4616713243159281442-3-0.0" type="actor-car-4993974142308933428" depart="0.00" departLane="1" departPos="75.70" departSpeed="max" arrivalLane="1" arrivalPos="20.39">
        <route edges="gneE9 gneE2 gneE1"/>
    </vehicle>
    <vehicle id="-flow-random-route-32f25460-319f-4824-843c-5fcfb4884fa3--4616713243159281442-9-0.0" type="actor-car-4993974142308933428" depart="0.00" departLane="1" departPos="8.63" departSpeed="max" arrivalLane="0" arrivalPos="29.86">
        <route edges="gneE1 gneE1.12 gneE5 gneE7 gneE7.117 gneE7.141 gneE8 gneE9 gneE2 gneE1"/>
    </vehicle>
    <vehicle id="-flow-random-route-3fd69c3f-9830-44fc-8788-0a1ecafb383e--4616713243159281442-6-0.0" type="actor-car-4993974142308933428" depart="0.00" departLane="0" departPos="52.27" departSpeed="max" arrivalLane="1" arrivalPos="28.92">
        <route edges="gneE5 gneE7 gneE7.117 gneE10 gneE3"/>
    </vehicle>
    <vehicle id="-flow-random-route-40f9e3c0-0ba6-402b-9880-5964e8370d12--4616713243159281442-15-0.0" type="actor-car-4993974142308933428" depart="0.00" departLane="0" departPos="142.73" departSpeed="max" arrivalLane="1" arrivalPos="25.42">
        <route edges="gneE8 gneE9 gneE2"/>
    </vehicle>
    <vehicle id="-flow-random-route-42f2e2a5-af54-46eb-88c4-7a52ab592159--4616713243159281442-23-0.0" type="actor-car-4993974142308933428" depart="0.00" departLane="1" departPos="51.03" departSpeed="max" arrivalLane="1" arrivalPos="9.22">
        <route edges="gneE9 gneE2 gneE1"/>
    </vehicle>
    <vehicle id="-flow-random-route-46c5c509-8e59-44f8-9497-932eca68daa3--4616713243159281442-21-0.0" type="actor-car-4993974142308933428" depart="0.00" departLane="0" departPos="80.76" departSpeed="max" arrivalLane="1" arrivalPos="8.62">
        <route edges="gneE9 gneE2 gneE1 gneE1.12 gneE5 gneE7 gneE7.117 gneE7.141 gneE8 gneE9"/>
    </vehicle>
    <vehicle id="-flow-random-route-4b9c7dc0-0c55-4f8f-a5ce-308140772049--4616713243159281442-29-0.0" type="actor-car-4993974142308933428" depart="0.00" departLane="1" departPos="101.44" departSpeed="max" arrivalLane="0" arrivalPos="32.83">
        <route edges="gneE1.12 gneE5 gneE7 gneE7.117 gneE7.141 gneE8 gneE9 gneE2 gneE1 gneE16"/>
    </vehicle>
    <vehicle id="-flow-random-route-6a822d97-14a0-4b84-98da-0a3b878f57f2--4616713243159281442-0-0.0" type="actor-car-4993974142308933428" depart="0.00" departLane="0" departPos="101.00" departSpeed="max" arrivalLane="1" arrivalPos="35.45">
        <route edges="gneE16 gneE7.117 gneE10 gneE3 gneE1"/>
    </vehicle>
    <vehicle id="-flow-random-route-758b8553-3552-4e27-afa4-103b47721255--4616713243159281442-2-0.0" type="actor-car-4993974142308933428" depart="0.00" departLane="0" departPos="46.08" departSpeed="max" arrivalLane="1" arrivalPos="9.68">
        <route edges="gneE10 gneE3 gneE1"/>
    </vehicle>
    <vehicle id="-flow-random-route-7bd4fb7d-3dd0-4cc2-8556-4a1bba4367e8--4616713243159281442-7-0.0" type="actor-car-4993974142308933428" depart="0.00" departLane="0" departPos="152.32" departSpeed="max" arrivalLane="1" arrivalPos="31.01">
        <route edges="gneE8 gneE9 gneE2 gneE1 gneE1.12 gneE5 gneE7 gneE7.117 gneE7.141 gneE8"/>
    </vehicle>
    <vehicle id="-flow-random-route-8921f726-ce99-45a0-bb50-c2b153375847--4616713243159281442-18-0.0" type="actor-car-4993974142308933428" depart="0.00" departLane="0" departPos="44.91" departSpeed="max" arrivalLane="0" arrivalPos="71.29">
        <route edges="gneE2 gneE1 gneE16"/>
    </vehicle>
    <vehicle id="-flow-random-route-90aece6b-e27e-4c42-8f99-b5975e6a9e94--4616713243159281442-5-0.0" type="actor-car-4993974142308933428" depart="0.00" departLane="0" departPos="63.76" departSpeed="max" arrivalLane="1" arrivalPos="49.06">
        <route edges="gneE16 gneE7.117 gneE7.141 gneE8 gneE9 gneE2 gneE1 gneE1.12 gneE5 gneE7"/>
    </vehicle>
    <vehicle id="-flow-random-route-9867f48e-9b62-4438-90e9-e1026f0b4596--4616713243159281442-13-0.0" type="actor-car-4993974142308933428" depart="0.00" departLane="0" departPos="54.68" departSpeed="max" arrivalLane="0" arrivalPos="45.78">
        <route edges="gneE7.141 gneE8 gneE9 gneE2 gneE1 gneE1.12 gneE5 gneE7 gneE7.117 gneE10"/>
    </vehicle>
    <vehicle id="-flow-random-route-9965a4e5-7806-4716-9336-55721f37d380--4616713243159281442-20-0.0" type="actor-car-4993974142308933428" depart="0.00" departLane="1" departPos="32.90" departSpeed="max" arrivalLane="1" arrivalPos="94.52">
        <route edges="gneE1.12 gneE5 gneE7 gneE7.117 gneE10"/>
    </vehicle>
    <vehicle id="-flow-random-route-a06df92c-caae-489d-b2bf-167caad0dcfb--4616713243159281442-27-0.0" type="actor-car-4993974142308933428" depart="0.00" departLane="0" departPos="63.04" departSpeed="max" arrivalLane="0" arrivalPos="19.94">
        <route edges="gneE7.141 gneE8 gneE9 gneE2 gneE1 gneE1.12 gneE5 gneE7 gneE7.117 gneE10"/>
    </vehicle>
    <vehicle id="-flow-random-route-b4e44a79-ca76-4a61-b5be-77147c65b1a3--4616713243159281442-4-0.0" type="actor-car-4993974142308933428" depart="0.00" departLane="0" departPos="22.38" departSpeed="max" arrivalLane="0" arrivalPos="75.84">
        <route edges="gneE7 gneE7.117 gneE10 gneE3 gneE1 gneE16 gneE7.117 gneE7.141 gneE8 gneE9"/>
    </vehicle>
    <vehicle id="-flow-random-route-b93b90ca-d9a1-444c-8057-d1690a8089b7--4616713243159281442-10-0.0" type="actor-car-4993974142308933428" depart="0.00" departLane="1" departPos="57.92" departSpeed="max" arrivalLane="1" arrivalPos="35.13">
        <route edges="gneE7.117 gneE10 gneE3 gneE1 gneE16 gneE7.117 gneE7.141 gneE8 gneE9 gneE2"/>
    </vehicle>
    <vehicle id="-flow-random-route-bf966dba-d7f4-41fd-a863-59c031a67385--4616713243159281442-16-0.0" type="actor-car-4993974142308933428" depart="0.00" departLane="1" departPos="78.44" departSpeed="max" arrivalLane="0" arrivalPos="6.23">
        <route edges="gneE5 gneE7 gneE7.117 gneE7.141 gneE8 gneE9 gneE2 gneE1 gneE1.12 gneE5"/>
    </vehicle>
    <vehicle id="-flow-random-route-c64b1a28-5c3b-4da1-9543-e29db8f69234--4616713243159281442-11-0.0" type="actor-car-4993974142308933428" depart="0.00" departLane="0" departPos="10.39" departSpeed="max" arrivalLane="0" arrivalPos="19.22">
        <route edges="gneE3 gneE1 gneE1.12 gneE5 gneE7 gneE7.117 gneE10 gneE3 gneE1 gneE16"/>
    </vehicle>
    <vehicle id="-flow-random-route-cd372fa2-c32f-484e-ae67-f4905b7c033b--4616713243159281442-28-0.0" type="actor-car-4993974142308933428" depart="0.00" departLane="0" departPos="0.98" departSpeed="max" arrivalLane="0" arrivalPos="31.10">
        <route edges="gneE5 gneE7 gneE7.117 gneE7.141 gneE8 gneE9 gneE2 gneE1 gneE1.12 gneE5"/>
    </vehicle>
    <vehicle id="-flow-random-route-db4b09c8-dd38-47c9-bb5f-45ace764fecd--4616713243159281442-24-0.0" type="actor-car-4993974142308933428" depart="0.00" departLane="1" departPos="139.88" departSpeed="max" arrivalLane="0" arrivalPos="27.74">
        <route edges="gneE7.117 gneE10 gneE3"/>
    </vehicle>
    <vehicle id="-flow-random-route-df3bac43-e55e-4340-bfb0-19e5e9f9ff07--4616713243159281442-26-0.0" type="actor-car-4993974142308933428" depart="0.00" departLane="1" departPos="86.24" departSpeed="max" arrivalLane="0" arrivalPos="123.11">
        <route edges="gneE1.12 gneE5 gneE7 gneE7.117 gneE7.141 gneE8 gneE9 gneE2 gneE1 gneE16"/>
    </vehicle>
    <vehicle id="-flow-random-route-f31c6416-bc83-43c0-b2a8-00abf90fedb8--4616713243159281442-1-0.0" type="actor-car-4993974142308933428" depart="0.00" departLane="1" departPos="41.46" departSpeed="max" arrivalLane="0" arrivalPos="12.18">
        <route edges="gneE5 gneE7 gneE7.117 gneE10 gneE3"/>
    </vehicle>
    <vehicle id="-flow-random-route-f7af5b7e-8aea-4d8f-84d4-7414cbd4479a--4616713243159281442-22-0.0" type="actor-car-4993974142308933428" depart="0.00" departLane="0" departPos="3.52" departSpeed="max" arrivalLane="0" arrivalPos="170.89">
        <route edges="gneE7.117 gneE7.141 gneE8"/>
    </vehicle>
    <vehicle id="-flow-random-route-fe53495e-fc25-44db-829b-53834ae5915b--4616713243159281442-19-0.0" type="actor-car-4993974142308933428" depart="0.00" departLane="0" departPos="32.02" departSpeed="max" arrivalLane="0" arrivalPos="63.63">
        <route edges="gneE2 gneE1 gneE16 gneE7.117 gneE10"/>
    </vehicle>
    <vehicle id="-flow-random-route-034dcaf0-9eff-41c2-8b63-7585447955ea--4616713243159281442-17-0.1" type="actor-car-4993974142308933428" depart="120.00" departLane="1" departPos="10.60" departSpeed="max" arrivalLane="1" arrivalPos="51.84">
        <route edges="gneE7.141 gneE8 gneE9 gneE2 gneE1 gneE1.12 gneE5 gneE7 gneE7.117 gneE10"/>
    </vehicle>
    <vehicle id="-flow-random-route-04df4b4a-d46c-4edc-999c-4b8d1ff21817--4616713243159281442-14-0.1" type="actor-car-4993974142308933428" depart="120.00" departLane="0" departPos="110.65" departSpeed="max" arrivalLane="1" arrivalPos="10.24">
        <route edges="gneE8 gneE9 gneE2"/>
    </vehicle>
    <vehicle id="-flow-random-route-05eaddeb-7304-49b7-a483-0f35ca8960d5--4616713243159281442-12-0.1" type="actor-car-4993974142308933428" depart="120.00" departLane="0" departPos="28.73" departSpeed="max" arrivalLane="1" arrivalPos="79.57">
        <route edges="gneE16 gneE7.117 gneE10"/>
    </vehicle>
    <vehicle id="-flow-random-route-18190756-6f23-49e3-a232-5013c76a7d4c--4616713243159281442-25-0.1" type="actor-car-4993974142308933428" depart="120.00" departLane="0" departPos="25.80" departSpeed="max" arrivalLane="0" arrivalPos="131.61">
        <route edges="gneE5 gneE7 gneE7.117 gneE7.141 gneE8 gneE9 gneE2 gneE1 gneE1.12 gneE5"/>
    </vehicle>
    <vehicle id="-flow-random-route-221b7a8d-9951-41a9-bd82-f68816cfe450--4616713243159281442-8-0.1" type="actor-car-4993974142308933428" depart="120.00" departLane="0" departPos="127.37" departSpeed="max" arrivalLane="0" arrivalPos="60.15">
        <route edges="gneE16 gneE7.117 gneE10 gneE3 gneE1 gneE16 gneE7.117 gneE7.141 gneE8 gneE9"/>
    </vehicle>
    <vehicle id="-flow-random-route-29b408c4-e577-4c45-a40d-99252d14f77e--4616713243159281442-3-0.1" type="actor-car-4993974142308933428" depart="120.00" departLane="1" departPos="75.70" departSpeed="max" arrivalLane="1" arrivalPos="20.39">
        <route edges="gneE9 gneE2 gneE1"/>
    </vehicle>
    <vehicle id="-flow-random-route-32f25460-319f-4824-843c-5fcfb4884fa3--4616713243159281442-9-0.1" type="actor-car-4993974142308933428" depart="120.00" departLane="1" departPos="8.63" departSpeed="max" arrivalLane="0" arrivalPos="29.86">
        <route edges="gneE1 gneE1.12 gneE5 gneE7 gneE7.117 gneE7.141 gneE8 gneE9 gneE2 gneE1"/>
    </vehicle>
    <vehicle id="-flow-random-route-3fd69c3f-9830-44fc-8788-0a1ecafb383e--4616713243159281442-6-0.1" type="actor-car-4993974142308933428" depart="120.00" departLane="0" departPos="52.27" departSpeed="max" arrivalLane="1" arrivalPos="28.92">
        <route edges="gneE5 gneE7 gneE7.117 gneE10 gneE3"/>
    </vehicle>
    <vehicle id="-flow-random-route-40f9e3c0-0ba6-402b-9880-5964e8370d12--4616713243159281442-15-0.1" type="actor-car-4993974142308933428" depart="120.00" departLane="0" departPos="142.73" departSpeed="max" arrivalLane="1" arrivalPos="25.42">
        <route edges="gneE8 gneE9 gneE2"/>
    </vehicle>
    <vehicle id="-flow-random-route-42f2e2a5-af54-46eb-88c4-7a52ab592159--4616713243159281442-23-0.1" type="actor-car-4993974142308933428" depart="120.00" departLane="1" departPos="51.03" departSpeed="max" arrivalLane="1" arrivalPos="9.22">
        <route edges="gneE9 gneE2 gneE1"/>
    </vehicle>
    <vehicle id="-flow-random-route-46c5c509-8e59-44f8-9497-932eca68daa3--4616713243159281442-21-0.1" type="actor-car-4993974142308933428" depart="120.00" departLane="0" departPos="80.76" departSpeed="max" arrivalLane="1" arrivalPos="8.62">
        <route edges="gneE9 gneE2 gneE1 gneE1.12 gneE5 gneE7 gneE7.117 gneE7.141 gneE8 gneE9"/>
    </vehicle>
    <vehicle id="-flow-random-route-4b9c7dc0-0c55-4f8f-a5ce-308140772049--4616713243159281442-29-0.1" type="actor-car-4993974142308933428" depart="120.00" departLane="1" departPos="101.44" departSpeed="max" arrivalLane="0" arrivalPos="32.83">
        <route edges="gneE1.12 gneE5 gneE7 gneE7.117 gneE7.141 gneE8 gneE9 gneE2 gneE1 gneE16"/>
    </vehicle>
    <vehicle id="-flow-random-route-6a822d97-14a0-4b84-98da-0a3b878f57f2--4616713243159281442-0-0.1" type="actor-car-4993974142308933428" depart="120.00" departLane="0" departPos="101.00" departSpeed="max" arrivalLane="1" arrivalPos="35.45">
        <route edges="gneE16 gneE7.117 gneE10 gneE3 gneE1"/>
    </vehicle>
    <vehicle id="-flow-random-route-758b8553-3552-4e27-afa4-103b47721255--4616713243159281442-2-0.1" type="actor-car-4993974142308933428" depart="120.00" departLane="0" departPos="46.08" departSpeed="max" arrivalLane="1" arrivalPos="9.68">
        <route edges="gneE10 gneE3 gneE1"/>
    </vehicle>
    <vehicle id="-flow-random-route-7bd4fb7d-3dd0-4cc2-8556-4a1bba4367e8--4616713243159281442-7-0.1" type="actor-car-4993974142308933428" depart="120.00" departLane="0" departPos="152.32" departSpeed="max" arrivalLane="1" arrivalPos="31.01">
        <route edges="gneE8 gneE9 gneE2 gneE1 gneE1.12 gneE5 gneE7 gneE7.117 gneE7.141 gneE8"/>
    </vehicle>
    <vehicle id="-flow-random-route-8921f726-ce99-45a0-bb50-c2b153375847--4616713243159281442-18-0.1" type="actor-car-4993974142308933428" depart="120.00" departLane="0" departPos="44.91" departSpeed="max" arrivalLane="0" arrivalPos="71.29">
        <route edges="gneE2 gneE1 gneE16"/>
    </vehicle>
    <vehicle id="-flow-random-route-90aece6b-e27e-4c42-8f99-b5975e6a9e94--4616713243159281442-5-0.1" type="actor-car-4993974142308933428" depart="120.00" departLane="0" departPos="63.76" departSpeed="max" arrivalLane="1" arrivalPos="49.06">
        <route edges="gneE16 gneE7.117 gneE7.141 gneE8 gneE9 gneE2 gneE1 gneE1.12 gneE5 gneE7"/>
    </vehicle>
    <vehicle id="-flow-random-route-9867f48e-9b62-4438-90e9-e1026f0b4596--4616713243159281442-13-0.1" type="actor-car-4993974142308933428" depart="120.00" departLane="0" departPos="54.68" departSpeed="max" arrivalLane="0" arrivalPos="45.78">
        <route edges="gneE7.141 gneE8 gneE9 gneE2 gneE1 gneE1.12 gneE5 gneE7 gneE7.117 gneE10"/>
    </vehicle>
    <vehicle id="-flow-random-route-9965a4e5-7806-4716-9336-55721f37d380--4616713243159281442-20-0.1" type="actor-car-4993974142308933428" depart="120.00" departLane="1" departPos="32.90" departSpeed="max" arrivalLane="1" arrivalPos="94.52">
        <route edges="gneE1.12 gneE5 gneE7 gneE7.117 gneE10"/>
    </vehicle>
    <vehicle id="-flow-random-route-a06df92c-caae-489d-b2bf-167caad0dcfb--4616713243159281442-27-0.1" type="actor-car-4993974142308933428" depart="120.00" departLane="0" departPos="63.04" departSpeed="max" arrivalLane="0" arrivalPos="19.94">
        <route edges="gneE7.141 gneE8 gneE9 gneE2 gneE1 gneE1.12 gneE5 gneE7 gneE7.117 gneE10"/>
    </vehicle>
    <vehicle id="-flow-random-route-b4e44a79-ca76-4a61-b5be-77147c65b1a3--4616713243159281442-4-0.1" type="actor-car-4993974142308933428" depart="120.00" departLane="0" departPos="22.38" departSpeed="max" arrivalLane="0" arrivalPos="75.84">
        <route edges="gneE7 gneE7.117 gneE10 gneE3 gneE1 gneE16 gneE7.117 gneE7.141 gneE8 gneE9"/>
    </vehicle>
    <vehicle id="-flow-random-route-b93b90ca-d9a1-444c-8057-d1690a8089b7--4616713243159281442-10-0.1" type="actor-car-4993974142308933428" depart="120.00" departLane="1" departPos="57.92" departSpeed="max" arrivalLane="1" arrivalPos="35.13">
        <route edges="gneE7.117 gneE10 gneE3 gneE1 gneE16 gneE7.117 gneE7.141 gneE8 gneE9 gneE2"/>
    </vehicle>
    <vehicle id="-flow-random-route-bf966dba-d7f4-41fd-a863-59c031a67385--4616713243159281442-16-0.1" type="actor-car-4993974142308933428" depart="120.00" departLane="1" departPos="78.44" departSpeed="max" arrivalLane="0" arrivalPos="6.23">
        <route edges="gneE5 gneE7 gneE7.117 gneE7.141 gneE8 gneE9 gneE2 gneE1 gneE1.12 gneE5"/>
    </vehicle>
    <vehicle id="-flow-random-route-c64b1a28-5c3b-4da1-9543-e29db8f69234--4616713243159281442-11-0.1" type="actor-car-4993974142308933428" depart="120.00" departLane="0" departPos="10.39" departSpeed="max" arrivalLane="0" arrivalPos="19.22">
        <route edges="gneE3 gneE1 gneE1.12 gneE5 gneE7 gneE7.117 gneE10 gneE3 gneE1 gneE16"/>
    </vehicle>
    <vehicle id="-flow-random-route-cd372fa2-c32f-484e-ae67-f4905b7c033b--4616713243159281442-28-0.1" type="actor-car-4993974142308933428" depart="120.00" departLane="0" departPos="0.98" departSpeed="max" arrivalLane="0" arrivalPos="31.10">
        <route edges="gneE5 gneE7 gneE7.117 gneE7.141 gneE8 gneE9 gneE2 gneE1 gneE1.12 gneE5"/>
    </vehicle>
    <vehicle id="-flow-random-route-db4b09c8-dd38-47c9-bb5f-45ace764fecd--4616713243159281442-24-0.1" type="actor-car-4993974142308933428" depart="120.00" departLane="1" departPos="139.88" departSpeed="max" arrivalLane="0" arrivalPos="27.74">
        <route edges="gneE7.117 gneE10 gneE3"/>
    </vehicle>
    <vehicle id="-flow-random-route-df3bac43-e55e-4340-bfb0-19e5e9f9ff07--4616713243159281442-26-0.1" type="actor-car-4993974142308933428" depart="120.00" departLane="1" departPos="86.24" departSpeed="max" arrivalLane="0" arrivalPos="123.11">
        <route edges="gneE1.12 gneE5 gneE7 gneE7.117 gneE7.141 gneE8 gneE9 gneE2 gneE1 gneE16"/>
    </vehicle>
    <vehicle id="-flow-random-route-f31c6416-bc83-43c0-b2a8-00abf90fedb8--4616713243159281442-1-0.1" type="actor-car-4993974142308933428" depart="120.00" departLane="1" departPos="41.46" departSpeed="max" arrivalLane="0" arrivalPos="12.18">
        <route edges="gneE5 gneE7 gneE7.117 gneE10 gneE3"/>
    </vehicle>
    <vehicle id="-flow-random-route-f7af5b7e-8aea-4d8f-84d4-7414cbd4479a--4616713243159281442-22-0.1" type="actor-car-4993974142308933428" depart="120.00" departLane="0" departPos="3.52" departSpeed="max" arrivalLane="0" arrivalPos="170.89">
        <route edges="gneE7.117 gneE7.141 gneE8"/>
    </vehicle>
    <vehicle id="-flow-random-route-fe53495e-fc25-44db-829b-53834ae5915b--4616713243159281442-19-0.1" type="actor-car-4993974142308933428" depart="120.00" departLane="0" departPos="32.02" departSpeed="max" arrivalLane="0" arrivalPos="63.63">
        <route edges="gneE2 gneE1 gneE16 gneE7.117 gneE10"/>
    </vehicle>
    <vehicle id="-flow-random-route-034dcaf0-9eff-41c2-8b63-7585447955ea--4616713243159281442-17-0.2" type="actor-car-4993974142308933428" depart="240.00" departLane="1" departPos="10.60" departSpeed="max" arrivalLane="1" arrivalPos="51.84">
        <route edges="gneE7.141 gneE8 gneE9 gneE2 gneE1 gneE1.12 gneE5 gneE7 gneE7.117 gneE10"/>
    </vehicle>
    <vehicle id="-flow-random-route-04df4b4a-d46c-4edc-999c-4b8d1ff21817--4616713243159281442-14-0.2" type="actor-car-4993974142308933428" depart="240.00" departLane="0" departPos="110.65" departSpeed="max" arrivalLane="1" arrivalPos="10.24">
        <route edges="gneE8 gneE9 gneE2"/>
    </vehicle>
    <vehicle id="-flow-random-route-05eaddeb-7304-49b7-a483-0f35ca8960d5--4616713243159281442-12-0.2" type="actor-car-4993974142308933428" depart="240.00" departLane="0" departPos="28.73" departSpeed="max" arrivalLane="1" arrivalPos="79.57">
        <route edges="gneE16 gneE7.117 gneE10"/>
    </vehicle>
    <vehicle id="-flow-random-route-18190756-6f23-49e3-a232-5013c76a7d4c--4616713243159281442-25-0.2" type="actor-car-4993974142308933428" depart="240.00" departLane="0" departPos="25.80" departSpeed="max" arrivalLane="0" arrivalPos="131.61">
        <route edges="gneE5 gneE7 gneE7.117 gneE7.141 gneE8 gneE9 gneE2 gneE1 gneE1.12 gneE5"/>
    </vehicle>
    <vehicle id="-flow-random-route-221b7a8d-9951-41a9-bd82-f68816cfe450--4616713243159281442-8-0.2" type="actor-car-4993974142308933428" depart="240.00" departLane="0" departPos="127.37" departSpeed="max" arrivalLane="0" arrivalPos="60.15">
        <route edges="gneE16 gneE7.117 gneE10 gneE3 gneE1 gneE16 gneE7.117 gneE7.141 gneE8 gneE9"/>
    </vehicle>
    <vehicle id="-flow-random-route-29b408c4-e577-4c45-a40d-99252d14f77e--4616713243159281442-3-0.2" type="actor-car-4993974142308933428" depart="240.00" departLane="1" departPos="75.70" departSpeed="max" arrivalLane="1" arrivalPos="20.39">
        <route edges="gneE9 gneE2 gneE1"/>
    </vehicle>
    <vehicle id="-flow-random-route-32f25460-319f-4824-843c-5fcfb4884fa3--4616713243159281442-9-0.2" type="actor-car-4993974142308933428" depart="240.00" departLane="1" departPos="8.63" departSpeed="max" arrivalLane="0" arrivalPos="29.86">
        <route edges="gneE1 gneE1.12 gneE5 gneE7 gneE7.117 gneE7.141 gneE8 gneE9 gneE2 gneE1"/>
    </vehicle>
    <vehicle id="-flow-random-route-3fd69c3f-9830-44fc-8788-0a1ecafb383e--4616713243159281442-6-0.2" type="actor-car-4993974142308933428" depart="240.00" departLane="0" departPos="52.27" departSpeed="max" arrivalLane="1" arrivalPos="28.92">
        <route edges="gneE5 gneE7 gneE7.117 gneE10 gneE3"/>
    </vehicle>
    <vehicle id="-flow-random-route-40f9e3c0-0ba6-402b-9880-5964e8370d12--4616713243159281442-15-0.2" type="actor-car-4993974142308933428" depart="240.00" departLane="0" departPos="142.73" departSpeed="max" arrivalLane="1" arrivalPos="25.42">
        <route edges="gneE8 gneE9 gneE2"/>
    </vehicle>
    <vehicle id="-flow-random-route-42f2e2a5-af54-46eb-88c4-7a52ab592159--4616713243159281442-23-0.2" type="actor-car-4993974142308933428" depart="240.00" departLane="1" departPos="51.03" departSpeed="max" arrivalLane="1" arrivalPos="9.22">
        <route edges="gneE9 gneE2 gneE1"/>
    </vehicle>
    <vehicle id="-flow-random-route-46c5c509-8e59-44f8-9497-932eca68daa3--4616713243159281442-21-0.2" type="actor-car-4993974142308933428" depart="240.00" departLane="0" departPos="80.76" departSpeed="max" arrivalLane="1" arrivalPos="8.62">
        <route edges="gneE9 gneE2 gneE1 gneE1.12 gneE5 gneE7 gneE7.117 gneE7.141 gneE8 gneE9"/>
    </vehicle>
    <vehicle id="-flow-random-route-4b9c7dc0-0c55-4f8f-a5ce-308140772049--4616713243159281442-29-0.2" type="actor-car-4993974142308933428" depart="240.00" departLane="1" departPos="101.44" departSpeed="max" arrivalLane="0" arrivalPos="32.83">
        <route edges="gneE1.12 gneE5 gneE7 gneE7.117 gneE7.141 gneE8 gneE9 gneE2 gneE1 gneE16"/>
    </vehicle>
    <vehicle id="-flow-random-route-6a822d97-14a0-4b84-98da-0a3b878f57f2--4616713243159281442-0-0.2" type="actor-car-4993974142308933428" depart="240.00" departLane="0" departPos="101.00" departSpeed="max" arrivalLane="1" arrivalPos="35.45">
        <route edges="gneE16 gneE7.117 gneE10 gneE3 gneE1"/>
    </vehicle>
    <vehicle id="-flow-random-route-758b8553-3552-4e27-afa4-103b47721255--4616713243159281442-2-0.2" type="actor-car-4993974142308933428" depart="240.00" departLane="0" departPos="46.08" departSpeed="max" arrivalLane="1" arrivalPos="9.68">
        <route edges="gneE10 gneE3 gneE1"/>
    </vehicle>
    <vehicle id="-flow-random-route-7bd4fb7d-3dd0-4cc2-8556-4a1bba4367e8--4616713243159281442-7-0.2" type="actor-car-4993974142308933428" depart="240.00" departLane="0" departPos="152.32" departSpeed="max" arrivalLane="1" arrivalPos="31.01">
        <route edges="gneE8 gneE9 gneE2 gneE1 gneE1.12 gneE5 gneE7 gneE7.117 gneE7.141 gneE8"/>
    </vehicle>
    <vehicle id="-flow-random-route-8921f726-ce99-45a0-bb50-c2b153375847--4616713243159281442-18-0.2" type="actor-car-4993974142308933428" depart="240.00" departLane="0" departPos="44.91" departSpeed="max" arrivalLane="0" arrivalPos="71.29">
        <route edges="gneE2 gneE1 gneE16"/>
    </vehicle>
    <vehicle id="-flow-random-route-90aece6b-e27e-4c42-8f99-b5975e6a9e94--4616713243159281442-5-0.2" type="actor-car-4993974142308933428" depart="240.00" departLane="0" departPos="63.76" departSpeed="max" arrivalLane="1" arrivalPos="49.06">
        <route edges="gneE16 gneE7.117 gneE7.141 gneE8 gneE9 gneE2 gneE1 gneE1.12 gneE5 gneE7"/>
    </vehicle>
    <vehicle id="-flow-random-route-9867f48e-9b62-4438-90e9-e1026f0b4596--4616713243159281442-13-0.2" type="actor-car-4993974142308933428" depart="240.00" departLane="0" departPos="54.68" departSpeed="max" arrivalLane="0" arrivalPos="45.78">
        <route edges="gneE7.141 gneE8 gneE9 gneE2 gneE1 gneE1.12 gneE5 gneE7 gneE7.117 gneE10"/>
    </vehicle>
    <vehicle id="-flow-random-route-9965a4e5-7806-4716-9336-55721f37d380--4616713243159281442-20-0.2" type="actor-car-4993974142308933428" depart="240.00" departLane="1" departPos="32.90" departSpeed="max" arrivalLane="1" arrivalPos="94.52">
        <route edges="gneE1.12 gneE5 gneE7 gneE7.117 gneE10"/>
    </vehicle>
    <vehicle id="-flow-random-route-a06df92c-caae-489d-b2bf-167caad0dcfb--4616713243159281442-27-0.2" type="actor-car-4993974142308933428" depart="240.00" departLane="0" departPos="63.04" departSpeed="max" arrivalLane="0" arrivalPos="19.94">
        <route edges="gneE7.141 gneE8 gneE9 gneE2 gneE1 gneE1.12 gneE5 gneE7 gneE7.117 gneE10"/>
    </vehicle>
    <vehicle id="-flow-random-route-b4e44a79-ca76-4a61-b5be-77147c65b1a3--4616713243159281442-4-0.2" type="actor-car-4993974142308933428" depart="240.00" departLane="0" departPos="22.38" departSpeed="max" arrivalLane="0" arrivalPos="75.84">
        <route edges="gneE7 gneE7.117 gneE10 gneE3 gneE1 gneE16 gneE7.117 gneE7.141 gneE8 gneE9"/>
    </vehicle>
    <vehicle id="-flow-random-route-b93b90ca-d9a1-444c-8057-d1690a8089b7--4616713243159281442-10-0.2" type="actor-car-4993974142308933428" depart="240.00" departLane="1" departPos="57.92" departSpeed="max" arrivalLane="1" arrivalPos="35.13">
        <route edges="gneE7.117 gneE10 gneE3 gneE1 gneE16 gneE7.117 gneE7.141 gneE8 gneE9 gneE2"/>
    </vehicle>
    <vehicle id="-flow-random-route-bf966dba-d7f4-41fd-a863-59c031a67385--4616713243159281442-16-0.2" type="actor-car-4993974142308933428" depart="240.00" departLane="1" departPos="78.44" departSpeed="max" arrivalLane="0" arrivalPos="6.23">
        <route edges="gneE5 gneE7 gneE7.117 gneE7.141 gneE8 gneE9 gneE2 gneE1 gneE1.12 gneE5"/>
    </vehicle>
    <vehicle id="-flow-random-route-c64b1a28-5c3b-4da1-9543-e29db8f69234--4616713243159281442-11-0.2" type="actor-car-4993974142308933428" depart="240.00" departLane="0" departPos="10.39" departSpeed="max" arrivalLane="0" arrivalPos="19.22">
        <route edges="gneE3 gneE1 gneE1.12 gneE5 gneE7 gneE7.117 gneE10 gneE3 gneE1 gneE16"/>
    </vehicle>
    <vehicle id="-flow-random-route-cd372fa2-c32f-484e-ae67-f4905b7c033b--4616713243159281442-28-0.2" type="actor-car-4993974142308933428" depart="240.00" departLane="0" departPos="0.98" departSpeed="max" arrivalLane="0" arrivalPos="31.10">
        <route edges="gneE5 gneE7 gneE7.117 gneE7.141 gneE8 gneE9 gneE2 gneE1 gneE1.12 gneE5"/>
    </vehicle>
    <vehicle id="-flow-random-route-db4b09c8-dd38-47c9-bb5f-45ace764fecd--4616713243159281442-24-0.2" type="actor-car-4993974142308933428" depart="240.00" departLane="1" departPos="139.88" departSpeed="max" arrivalLane="0" arrivalPos="27.74">
        <route edges="gneE7.117 gneE10 gneE3"/>
    </vehicle>