<?xml version="1.0" encoding="UTF-8"?>

<!-- generated on Sun Aug 30 13:07:48 2020 by Eclipse SUMO duarouter Version 1.6.0
<configuration xmlns:xsi="http://www.w3.org/2001/XMLSchema-instance" xsi:noNamespaceSchemaLocation="http://sumo.dlr.de/xsd/duarouterConfiguration.xsd">

    <input>
        <net-file value="../dataset_public/all_loop/all_loop_a/map.net.xml"/>
        <route-files value="/tmp/tmpk06xe5oh/trips.trips.xml"/>
    </input>

    <output>
        <output-file value="../dataset_public/all_loop/all_loop_a/traffic/30_patient_car.rou.xml"/>
        <alternatives-output value="../dataset_public/all_loop/all_loop_a/traffic/30_patient_car.rou.alt.xml"/>
    </output>

    <processing>
        <unsorted-input value="true"/>
        <repair value="true"/>
    </processing>

    <report>
        <error-log value="/tmp/smarts/_duarouter_routing/traffic/30_patient_car.log"/>
        <no-step-log value="true"/>
    </report>

    <random_number>
        <seed value="42"/>
    </random_number>

</configuration>
-->

<routes xmlns:xsi="http://www.w3.org/2001/XMLSchema-instance" xsi:noNamespaceSchemaLocation="http://sumo.dlr.de/xsd/routes_file.xsd">
    <vType id="actor-car-2650634448464563273" minGap="2.50" speedFactor="normc(0.50,0.20,0.20,2.00)" vClass="passenger" impatience="0.50" lcCooperative="0.5" lcImpatience="0" jmDriveAfterYellowTime="1.0" accel="2.6" decel="4.5" sigma="0.5"/>
    <vehicle id="-flow-random-route-019081a0-925e-4468-8105-109bd9cade71--8156123710257928893-17-0.0" type="actor-car-2650634448464563273" depart="0.00" departLane="1" departPos="7.78" departSpeed="max" arrivalLane="1" arrivalPos="5.64">
        <route edges="gneE104 gneE105 edge-west-WS gneE143 gneE145 gneE146 gneE161 gneE162 gneE100 gneE91"/>
    </vehicle>
    <vehicle id="-flow-random-route-1bf6f160-4eaa-4298-be56-5df16d37c9c9--8156123710257928893-18-0.0" type="actor-car-2650634448464563273" depart="0.00" departLane="0" departPos="0.41" departSpeed="max" arrivalLane="0" arrivalPos="1.84">
        <route edges="gneE140 edge-north-NW edge-west-WS edge-south-SE edge-east-EN -gneE140 -gneE110 -gneE124 gneE100 gneE91"/>
    </vehicle>
    <vehicle id="-flow-random-route-2738d39c-4080-485e-aac2-e35c499b1591--8156123710257928893-5-0.0" type="actor-car-2650634448464563273" depart="0.00" departLane="1" departPos="33.12" departSpeed="max" arrivalLane="0" arrivalPos="19.84">
        <route edges="gneE143 gneE145 gneE146 gneE148 gneE125 gneE129 gneE137 gneE138 gneE104 gneE105"/>
    </vehicle>
    <vehicle id="-flow-random-route-2c126adf-6d24-4a27-92bb-2821ce4eb04a--8156123710257928893-14-0.0" type="actor-car-2650634448464563273" depart="0.00" departLane="1" departPos="35.27" departSpeed="max" arrivalLane="0" arrivalPos="77.10">
        <route edges="gneE104 gneE105 edge-west-WS gneE143 gneE145 gneE146 gneE161 gneE164 gneE124.71 gneE110"/>
    </vehicle>
    <vehicle id="-flow-random-route-32c7e4fd-3e3f-4c8b-b7d2-4243e49c4486--8156123710257928893-26-0.0" type="actor-car-2650634448464563273" depart="0.00" departLane="1" departPos="21.25" departSpeed="max" arrivalLane="1" arrivalPos="1.05">
        <route edges="gneE105 edge-west-WS gneE143 gneE145 gneE146 gneE148 -gneE114 -gneE124 gneE100 gneE91"/>
    </vehicle>
    <vehicle id="-flow-random-route-444d1c19-0aab-4b59-a0b7-6ab0035330e8--8156123710257928893-7-0.0" type="actor-car-2650634448464563273" depart="0.00" departLane="0" departPos="47.44" departSpeed="max" arrivalLane="0" arrivalPos="50.54">
        <route edges="gneE124 gneE124.71 gneE114 gneE125"/>
    </vehicle>
    <vehicle id="-flow-random-route-4afe82b9-c15d-401c-bf76-66ebab738b81--8156123710257928893-20-0.0" type="actor-car-2650634448464563273" depart="0.00" departLane="0" departPos="53.80" departSpeed="max" arrivalLane="0" arrivalPos="7.20">
        <route edges="gneE124.71 gneE135 gneE137 gneE138 gneE104 gneE105 edge-west-WS gneE143 gneE145 gneE146"/>
    </vehicle>
    <vehicle id="-flow-random-route-4eddd91b-933a-4b59-8c69-b46e8ae4525b--8156123710257928893-0-0.0" type="actor-car-2650634448464563273" depart="0.00" departLane="0" departPos="23.83" departSpeed="max" arrivalLane="0" arrivalPos="82.00">
        <route edges="-gneE124 gneE100 gneE91 edge-east-EN edge-north-NW edge-west-WS gneE143 gneE145 gneE146 gneE148"/>
    </vehicle>
    <vehicle id="-flow-random-route-65e5124f-02c9-45ab-8f4f-dd107c3eab01--8156123710257928893-10-0.0" type="actor-car-2650634448464563273" depart="0.00" departLane="0" departPos="53.29" departSpeed="max" arrivalLane="0" arrivalPos="75.48">
        <route edges="gneE100 gneE91 edge-east-EN edge-north-NW edge-west-WS gneE143 gneE145 gneE146 gneE148 -gneE114"/>
    </vehicle>
    <vehicle id="-flow-random-route-675ebfcb-bf6a-47e8-a3c5-01f6941ad6db--8156123710257928893-24-0.0" type="actor-car-2650634448464563273" depart="0.00" departLane="0" departPos="55.81" departSpeed="max" arrivalLane="0" arrivalPos="32.44">
        <route edges="gneE129 -gneE135"/>
    </vehicle>
    <vehicle id="-flow-random-route-692edeba-18d0-408e-9001-ebec1076b1fe--8156123710257928893-16-0.0" type="actor-car-2650634448464563273" depart="0.00" departLane="0" departPos="49.79" departSpeed="max" arrivalLane="0" arrivalPos="2.95">
        <route edges="gneE138 gneE104 gneE105 edge-west-WS edge-south-SE edge-east-EN"/>
    </vehicle>
    <vehicle id="-flow-random-route-70d4d942-22e3-41d3-91cc-bdebf97cfbb4--8156123710257928893-23-0.0" type="actor-car-2650634448464563273" depart="0.00" departLane="0" departPos="11.08" departSpeed="max" arrivalLane="0" arrivalPos="43.83">
        <route edges="edge-north-NW edge-west-WS edge-south-SE edge-east-EN edge-north-NW edge-west-WS gneE143 gneE144 gneE124 gneE124.71"/>
    </vehicle>
    <vehicle id="-flow-random-route-816709ad-55f1-490b-9b9a-db13ea65991e--8156123710257928893-22-0.0" type="actor-car-2650634448464563273" depart="0.00" departLane="0" departPos="30.81" departSpeed="max" arrivalLane="0" arrivalPos="9.50">
        <route edges="edge-south-SE edge-east-EN edge-north-NW edge-west-WS gneE143 gneE144 gneE124 gneE124.71 gneE110 gneE140"/>
    </vehicle>
    <vehicle id="-flow-random-route-8376ea66-64a4-4799-87d4-2e527bb7a0c5--8156123710257928893-8-0.0" type="actor-car-2650634448464563273" depart="0.00" departLane="0" departPos="111.08" departSpeed="max" arrivalLane="0" arrivalPos="56.32">
        <route edges="gneE148 gneE125 gneE129 -gneE135 gneE114 gneE125 gneE129 -gneE135 -gneE124 gneE100"/>
    </vehicle>
    <vehicle id="-flow-random-route-889424f8-3495-46bf-882a-fae8b6bfa8da--8156123710257928893-1-0.0" type="actor-car-2650634448464563273" depart="0.00" departLane="0" departPos="122.31" departSpeed="max" arrivalLane="0" arrivalPos="45.19">
        <route edges="-gneE110 gneE135 -gneE129 -gneE125 -gneE114 gneE135 gneE137 gneE138 gneE104 gneE105"/>
    </vehicle>
    <vehicle id="-flow-random-route-8c4c00da-5c42-4220-98d4-26698ba82ec8--8156123710257928893-12-0.0" type="actor-car-2650634448464563273" depart="0.00" departLane="0" departPos="80.10" departSpeed="max" arrivalLane="1" arrivalPos="29.06">
        <route edges="-gneE129 -gneE125 -gneE114 gneE135 gneE137 gneE138 gneE140 edge-north-NW edge-west-WS gneE143"/>
    </vehicle>
    <vehicle id="-flow-random-route-8d3f933b-ac2c-46fc-a65a-8d287aef03bb--8156123710257928893-9-0.0" type="actor-car-2650634448464563273" depart="0.00" departLane="1" departPos="85.84" departSpeed="max" arrivalLane="0" arrivalPos="55.00">
        <route edges="gneE105 edge-west-WS gneE143 gneE144 gneE124 gneE124.71 gneE114 gneE125 gneE129 -gneE135"/>
    </vehicle>
    <vehicle id="-flow-random-route-8f280ade-ab5f-445f-a0db-e04eaebbc1e0--8156123710257928893-19-0.0" type="actor-car-2650634448464563273" depart="0.00" departLane="0" departPos="14.67" departSpeed="max" arrivalLane="1" arrivalPos="1.13">
        <route edges="gneE135 gneE137 gneE138 gneE140 edge-north-NW edge-west-WS gneE143 gneE144 gneE100 gneE91"/>
    </vehicle>
    <vehicle id="-flow-random-route-94907c62-e16b-44b4-9542-2b2ece0189c5--8156123710257928893-21-0.0" type="actor-car-2650634448464563273" depart="0.00" departLane="0" departPos="67.76" departSpeed="max" arrivalLane="1" arrivalPos="29.97">
        <route edges="gneE138 -gneE110 gneE135 -gneE129 -gneE125 -gneE114 -gneE124 gneE100 gneE91 edge-east-EN"/>
    </vehicle>
    <vehicle id="-flow-random-route-97cc4e77-c1c0-4643-b8c1-d8b24aaeaa87--8156123710257928893-27-0.0" type="actor-car-2650634448464563273" depart="0.00" departLane="0" departPos="6.07" departSpeed="max" arrivalLane="0" arrivalPos="91.54">
        <route edges="gneE144 gneE100 gneE91 edge-east-EN -gneE140 -gneE138 -gneE137 -gneE129 -gneE125 -gneE114"/>
    </vehicle>
    <vehicle id="-flow-random-route-9e813785-6dc8-48b4-81dd-5b618b25f65a--8156123710257928893-13-0.0" type="actor-car-2650634448464563273" depart="0.00" departLane="0" departPos="31.41" departSpeed="max" arrivalLane="0" arrivalPos="63.93">
        <route edges="gneE145 gneE146 gneE148 gneE125 gneE129 gneE137 gneE138 gneE140 edge-north-NW edge-west-WS"/>
    </vehicle>
    <vehicle id="-flow-random-route-9e877b4d-e291-47d2-b1bb-0adc674f7a50--8156123710257928893-2-0.0" type="actor-car-2650634448464563273" depart="0.00" departLane="0" departPos="21.79" departSpeed="max" arrivalLane="0" arrivalPos="66.21">
        <route edges="-gneE140 gneE104 gneE105 edge-west-WS gneE143 gneE145 gneE146 gneE148 -gneE114 -gneE124"/>
    </vehicle>
    <vehicle id="-flow-random-route-a195ec0c-7309-4d01-a882-46365dd4b251--8156123710257928893-3-0.0" type="actor-car-2650634448464563273" depart="0.00" departLane="0" departPos="111.79" departSpeed="max" arrivalLane="0" arrivalPos="23.10">
        <route edges="-gneE137 -gneE129 -gneE125 -gneE114"/>
    </vehicle>
    <vehicle id="-flow-random-route-a4e46af1-2eb1-4474-a082-d07aa53b865b--8156123710257928893-4-0.0" type="actor-car-2650634448464563273" depart="0.00" departLane="0" departPos="15.02" departSpeed="max" arrivalLane="0" arrivalPos="21.79">
        <route edges="gneE145 gneE146 gneE161 gneE164 gneE124.71 gneE135 gneE137 gneE138 gneE104 gneE105"/>
    </vehicle>
    <vehicle id="-flow-random-route-a95fcbea-4467-43e6-b582-9cb2cb42e115--8156123710257928893-28-0.0" type="actor-car-2650634448464563273" depart="0.00" departLane="1" departPos="20.49" departSpeed="max" arrivalLane="0" arrivalPos="8.84">
        <route edges="gneE161 gneE162 gneE124 gneE124.71 gneE114 gneE125 gneE129 gneE137 gneE138 gneE140"/>
    </vehicle>
    <vehicle id="-flow-random-route-accec4f0-a9e9-4d36-b060-335c2e7dd2e3--8156123710257928893-6-0.0" type="actor-car-2650634448464563273" depart="0.00" departLane="0" departPos="21.09" departSpeed="max" arrivalLane="0" arrivalPos="54.14">
        <route edges="gneE114 gneE125 gneE129 gneE137 gneE138 -gneE110 gneE135 -gneE129 -gneE125 -gneE114"/>
    </vehicle>
    <vehicle id="-flow-random-route-d6150711-83c7-4cea-aa30-25b2327aee8b--8156123710257928893-11-0.0" type="actor-car-2650634448464563273" depart="0.00" departLane="1" departPos="64.96" departSpeed="max" arrivalLane="1" arrivalPos="39.29">
        <route edges="gneE100 gneE91 edge-east-EN edge-north-NW edge-west-WS edge-south-SE edge-east-EN edge-north-NW edge-west-WS gneE143"/>
    </vehicle>
    <vehicle id="-flow-random-route-d7d70d6c-b810-4b20-9b23-d6de49789f8d--8156123710257928893-25-0.0" type="actor-car-2650634448464563273" depart="0.00" departLane="1" departPos="12.70" departSpeed="max" arrivalLane="1" arrivalPos="4.15">
        <route edges="edge-west-WS edge-south-SE edge-east-EN edge-north-NW edge-west-WS edge-south-SE edge-east-EN edge-north-NW edge-west-WS gneE143"/>
    </vehicle>
    <vehicle id="-flow-random-route-d9e39dab-a41e-4b15-a608-78257e7cb110--8156123710257928893-15-0.0" type="actor-car-2650634448464563273" depart="0.00" departLane="0" departPos="46.10" departSpeed="max" arrivalLane="1" arrivalPos="10.42">
        <route edges="gneE100 gneE91 edge-east-EN"/>
    </vehicle>
    <vehicle id="-flow-random-route-ecc614f9-3654-442a-8964-0a7db55fe2a4--8156123710257928893-29-0.0" type="actor-car-2650634448464563273" depart="0.00" departLane="0" departPos="1.73" departSpeed="max" arrivalLane="1" arrivalPos="7.27">
        <route edges="gneE91 edge-east-EN -gneE140 -gneE138 -gneE137 -gneE135 gneE110 gneE140 edge-north-NW edge-west-WS"/>
    </vehicle>
    <vehicle id="-flow-random-route-019081a0-925e-4468-8105-109bd9cade71--8156123710257928893-17-0.1" type="actor-car-2650634448464563273" depart="120.00" departLane="1" departPos="7.78" departSpeed="max" arrivalLane="1" arrivalPos="5.64">
        <route edges="gneE104 gneE105 edge-west-WS gneE143 gneE145 gneE146 gneE161 gneE162 gneE100 gneE91"/>
    </vehicle>
    <vehicle id="-flow-random-route-1bf6f160-4eaa-4298-be56-5df16d37c9c9--8156123710257928893-18-0.1" type="actor-car-2650634448464563273" depart="120.00" departLane="0" departPos="0.41" departSpeed="max" arrivalLane="0" arrivalPos="1.84">
        <route edges="gneE140 edge-north-NW edge-west-WS edge-south-SE edge-east-EN -gneE140 -gneE110 -gneE124 gneE100 gneE91"/>
    </vehicle>
    <vehicle id="-flow-random-route-2738d39c-4080-485e-aac2-e35c499b1591--8156123710257928893-5-0.1" type="actor-car-2650634448464563273" depart="120.00" departLane="1" departPos="33.12" departSpeed="max" arrivalLane="0" arrivalPos="19.84">
        <route edges="gneE143 gneE145 gneE146 gneE148 gneE125 gneE129 gneE137 gneE138 gneE104 gneE105"/>
    </vehicle>
    <vehicle id="-flow-random-route-2c126adf-6d24-4a27-92bb-2821ce4eb04a--8156123710257928893-14-0.1" type="actor-car-2650634448464563273" depart="120.00" departLane="1" departPos="35.27" departSpeed="max" arrivalLane="0" arrivalPos="77.10">
        <route edges="gneE104 gneE105 edge-west-WS gneE143 gneE145 gneE146 gneE161 gneE164 gneE124.71 gneE110"/>
    </vehicle>
    <vehicle id="-flow-random-route-32c7e4fd-3e3f-4c8b-b7d2-4243e49c4486--8156123710257928893-26-0.1" type="actor-car-2650634448464563273" depart="120.00" departLane="1" departPos="21.25" departSpeed="max" arrivalLane="1" arrivalPos="1.05">
        <route edges="gneE105 edge-west-WS gneE143 gneE145 gneE146 gneE148 -gneE114 -gneE124 gneE100 gneE91"/>
    </vehicle>
    <vehicle id="-flow-random-route-444d1c19-0aab-4b59-a0b7-6ab0035330e8--8156123710257928893-7-0.1" type="actor-car-2650634448464563273" depart="120.00" departLane="0" departPos="47.44" departSpeed="max" arrivalLane="0" arrivalPos="50.54">
        <route edges="gneE124 gneE124.71 gneE114 gneE125"/>
    </vehicle>
    <vehicle id="-flow-random-route-4afe82b9-c15d-401c-bf76-66ebab738b81--8156123710257928893-20-0.1" type="actor-car-2650634448464563273" depart="120.00" departLane="0" departPos="53.80" departSpeed="max" arrivalLane="0" arrivalPos="7.20">
        <route edges="gneE124.71 gneE135 gneE137 gneE138 gneE104 gneE105 edge-west-WS gneE143 gneE145 gneE146"/>
    </vehicle>
    <vehicle id="-flow-random-route-4eddd91b-933a-4b59-8c69-b46e8ae4525b--8156123710257928893-0-0.1" type="actor-car-2650634448464563273" depart="120.00" departLane="0" departPos="23.83" departSpeed="max" arrivalLane="0" arrivalPos="82.00">
        <route edges="-gneE124 gneE100 gneE91 edge-east-EN edge-north-NW edge-west-WS gneE143 gneE145 gneE146 gneE148"/>
    </vehicle>
    <vehicle id="-flow-random-route-65e5124f-02c9-45ab-8f4f-dd107c3eab01--8156123710257928893-10-0.1" type="actor-car-2650634448464563273" depart="120.00" departLane="0" departPos="53.29" departSpeed="max" arrivalLane="0" arrivalPos="75.48">
        <route edges="gneE100 gneE91 edge-east-EN edge-north-NW edge-west-WS gneE143 gneE145 gneE146 gneE148 -gneE114"/>
    </vehicle>
    <vehicle id="-flow-random-route-675ebfcb-bf6a-47e8-a3c5-01f6941ad6db--8156123710257928893-24-0.1" type="actor-car-2650634448464563273" depart="120.00" departLane="0" departPos="55.81" departSpeed="max" arrivalLane="0" arrivalPos="32.44">
        <route edges="gneE129 -gneE135"/>
    </vehicle>
    <vehicle id="-flow-random-route-692edeba-18d0-408e-9001-ebec1076b1fe--8156123710257928893-16-0.1" type="actor-car-2650634448464563273" depart="120.00" departLane="0" departPos="49.79" departSpeed="max" arrivalLane="0" arrivalPos="2.95">
        <route edges="gneE138 gneE104 gneE105 edge-west-WS edge-south-SE edge-east-EN"/>
    </vehicle>
    <vehicle id="-flow-random-route-70d4d942-22e3-41d3-91cc-bdebf97cfbb4--8156123710257928893-23-0.1" type="actor-car-2650634448464563273" depart="120.00" departLane="0" departPos="11.08" departSpeed="max" arrivalLane="0" arrivalPos="43.83">
        <route edges="edge-north-NW edge-west-WS edge-south-SE edge-east-EN edge-north-NW edge-west-WS gneE143 gneE144 gneE124 gneE124.71"/>
    </vehicle>
    <vehicle id="-flow-random-route-816709ad-55f1-490b-9b9a-db13ea65991e--8156123710257928893-22-0.1" type="actor-car-2650634448464563273" depart="120.00" departLane="0" departPos="30.81" departSpeed="max" arrivalLane="0" arrivalPos="9.50">
        <route edges="edge-south-SE edge-east-EN edge-north-NW edge-west-WS gneE143 gneE144 gneE124 gneE124.71 gneE110 gneE140"/>
    </vehicle>
    <vehicle id="-flow-random-route-8376ea66-64a4-4799-87d4-2e527bb7a0c5--8156123710257928893-8-0.1" type="actor-car-2650634448464563273" depart="120.00" departLane="0" departPos="111.08" departSpeed="max" arrivalLane="0" arrivalPos="56.32">
        <route edges="gneE148 gneE125 gneE129 -gneE135 gneE114 gneE125 gneE129 -gneE135 -gneE124 gneE100"/>
    </vehicle>
    <vehicle id="-flow-random-route-889424f8-3495-46bf-882a-fae8b6bfa8da--8156123710257928893-1-0.1" type="actor-car-2650634448464563273" depart="120.00" departLane="0" departPos="122.31" departSpeed="max" arrivalLane="0" arrivalPos="45.19">
        <route edges="-gneE110 gneE135 -gneE129 -gneE125 -gneE114 gneE135 gneE137 gneE138 gneE104 gneE105"/>
    </vehicle>
    <vehicle id="-flow-random-route-8c4c00da-5c42-4220-98d4-26698ba82ec8--8156123710257928893-12-0.1" type="actor-car-2650634448464563273" depart="120.00" departLane="0" departPos="80.10" departSpeed="max" arrivalLane="1" arrivalPos="29.06">
        <route edges="-gneE129 -gneE125 -gneE114 gneE135 gneE137 gneE138 gneE140 edge-north-NW edge-west-WS gneE143"/>
    </vehicle>
    <vehicle id="-flow-random-route-8d3f933b-ac2c-46fc-a65a-8d287aef03bb--8156123710257928893-9-0.1" type="actor-car-2650634448464563273" depart="120.00" departLane="1" departPos="85.84" departSpeed="max" arrivalLane="0" arrivalPos="55.00">
        <route edges="gneE105 edge-west-WS gneE143 gneE144 gneE124 gneE124.71 gneE114 gneE125 gneE129 -gneE135"/>
    </vehicle>
    <vehicle id="-flow-random-route-8f280ade-ab5f-445f-a0db-e04eaebbc1e0--8156123710257928893-19-0.1" type="actor-car-2650634448464563273" depart="120.00" departLane="0" departPos="14.67" departSpeed="max" arrivalLane="1" arrivalPos="1.13">
        <route edges="gneE135 gneE137 gneE138 gneE140 edge-north-NW edge-west-WS gneE143 gneE144 gneE100 gneE91"/>
    </vehicle>
    <vehicle id="-flow-random-route-94907c62-e16b-44b4-9542-2b2ece0189c5--8156123710257928893-21-0.1" type="actor-car-2650634448464563273" depart="120.00" departLane="0" departPos="67.76" departSpeed="max" arrivalLane="1" arrivalPos="29.97">
        <route edges="gneE138 -gneE110 gneE135 -gneE129 -gneE125 -gneE114 -gneE124 gneE100 gneE91 edge-east-EN"/>
    </vehicle>
    <vehicle id="-flow-random-route-97cc4e77-c1c0-4643-b8c1-d8b24aaeaa87--8156123710257928893-27-0.1" type="actor-car-2650634448464563273" depart="120.00" departLane="0" departPos="6.07" departSpeed="max" arrivalLane="0" arrivalPos="91.54">
        <route edges="gneE144 gneE100 gneE91 edge-east-EN -gneE140 -gneE138 -gneE137 -gneE129 -gneE125 -gneE114"/>
    </vehicle>
    <vehicle id="-flow-random-route-9e813785-6dc8-48b4-81dd-5b618b25f65a--8156123710257928893-13-0.1" type="actor-car-2650634448464563273" depart="120.00" departLane="0" departPos="31.41" departSpeed="max" arrivalLane="0" arrivalPos="63.93">
        <route edges="gneE145 gneE146 gneE148 gneE125 gneE129 gneE137 gneE138 gneE140 edge-north-NW edge-west-WS"/>
    </vehicle>
    <vehicle id="-flow-random-route-9e877b4d-e291-47d2-b1bb-0adc674f7a50--8156123710257928893-2-0.1" type="actor-car-2650634448464563273" depart="120.00" departLane="0" departPos="21.79" departSpeed="max" arrivalLane="0" arrivalPos="66.21">
        <route edges="-gneE140 gneE104 gneE105 edge-west-WS gneE143 gneE145 gneE146 gneE148 -gneE114 -gneE124"/>
    </vehicle>
    <vehicle id="-flow-random-route-a195ec0c-7309-4d01-a882-46365dd4b251--8156123710257928893-3-0.1" type="actor-car-2650634448464563273" depart="120.00" departLane="0" departPos="111.79" departSpeed="max" arrivalLane="0" arrivalPos="23.10">
        <route edges="-gneE137 -gneE129 -gneE125 -gneE114"/>
    </vehicle>
    <vehicle id="-flow-random-route-a4e46af1-2eb1-4474-a082-d07aa53b865b--8156123710257928893-4-0.1" type="actor-car-2650634448464563273" depart="120.00" departLane="0" departPos="15.02" departSpeed="max" arrivalLane="0" arrivalPos="21.79">
        <route edges="gneE145 gneE146 gneE161 gneE164 gneE124.71 gneE135 gneE137 gneE138 gneE104 gneE105"/>
    </vehicle>
    <vehicle id="-flow-random-route-a95fcbea-4467-43e6-b582-9cb2cb42e115--8156123710257928893-28-0.1" type="actor-car-2650634448464563273" depart="120.00" departLane="1" departPos="20.49" departSpeed="max" arrivalLane="0" arrivalPos="8.84">
        <route edges="gneE161 gneE162 gneE124 gneE124.71 gneE114 gneE125 gneE129 gneE137 gneE138 gneE140"/>
    </vehicle>
    <vehicle id="-flow-random-route-accec4f0-a9e9-4d36-b060-335c2e7dd2e3--8156123710257928893-6-0.1" type="actor-car-2650634448464563273" depart="120.00" departLane="0" departPos="21.09" departSpeed="max" arrivalLane="0" arrivalPos="54.14">
        <route edges="gneE114 gneE125 gneE129 gneE137 gneE138 -gneE110 gneE135 -gneE129 -gneE125 -gneE114"/>
    </vehicle>
    <vehicle id="-flow-random-route-d6150711-83c7-4cea-aa30-25b2327aee8b--8156123710257928893-11-0.1" type="actor-car-2650634448464563273" depart="120.00" departLane="1" departPos="64.96" departSpeed="max" arrivalLane="1" arrivalPos="39.29">
        <route edges="gneE100 gneE91 edge-east-EN edge-north-NW edge-west-WS edge-south-SE edge-east-EN edge-north-NW edge-west-WS gneE143"/>
    </vehicle>
    <vehicle id="-flow-random-route-d7d70d6c-b810-4b20-9b23-d6de49789f8d--8156123710257928893-25-0.1" type="actor-car-2650634448464563273" depart="120.00" departLane="1" departPos="12.70" departSpeed="max" arrivalLane="1" arrivalPos="4.15">
        <route edges="edge-west-WS edge-south-SE edge-east-EN edge-north-NW edge-west-WS edge-south-SE edge-east-EN edge-north-NW edge-west-WS gneE143"/>
    </vehicle>
    <vehicle id="-flow-random-route-d9e39dab-a41e-4b15-a608-78257e7cb110--8156123710257928893-15-0.1" type="actor-car-2650634448464563273" depart="120.00" departLane="0" departPos="46.10" departSpeed="max" arrivalLane="1" arrivalPos="10.42">
        <route edges="gneE100 gneE91 edge-east-EN"/>
    </vehicle>
    <vehicle id="-flow-random-route-ecc614f9-3654-442a-8964-0a7db55fe2a4--8156123710257928893-29-0.1" type="actor-car-2650634448464563273" depart="120.00" departLane="0" departPos="1.73" departSpeed="max" arrivalLane="1" arrivalPos="7.27">
        <route edges="gneE91 edge-east-EN -gneE140 -gneE138 -gneE137 -gneE135 gneE110 gneE140 edge-north-NW edge-west-WS"/>
    </vehicle>
    <vehicle id="-flow-random-route-019081a0-925e-4468-8105-109bd9cade71--8156123710257928893-17-0.2" type="actor-car-2650634448464563273" depart="240.00" departLane="1" departPos="7.78" departSpeed="max" arrivalLane="1" arrivalPos="5.64">
        <route edges="gneE104 gneE105 edge-west-WS gneE143 gneE145 gneE146 gneE161 gneE162 gneE100 gneE91"/>
    </vehicle>
    <vehicle id="-flow-random-route-1bf6f160-4eaa-4298-be56-5df16d37c9c9--8156123710257928893-18-0.2" type="actor-car-2650634448464563273" depart="240.00" departLane="0" departPos="0.41" departSpeed="max" arrivalLane="0" arrivalPos="1.84">
        <route edges="gneE140 edge-north-NW edge-west-WS edge-south-SE edge-east-EN -gneE140 -gneE110 -gneE124 gneE100 gneE91"/>
    </vehicle>
    <vehicle id="-flow-random-route-2738d39c-4080-485e-aac2-e35c499b1591--8156123710257928893-5-0.2" type="actor-car-2650634448464563273" depart="240.00" departLane="1" departPos="33.12" departSpeed="max" arrivalLane="0" arrivalPos="19.84">
        <route edges="gneE143 gneE145 gneE146 gneE148 gneE125 gneE129 gneE137 gneE138 gneE104 gneE105"/>
    </vehicle>
    <vehicle id="-flow-random-route-2c126adf-6d24-4a27-92bb-2821ce4eb04a--8156123710257928893-14-0.2" type="actor-car-2650634448464563273" depart="240.00" departLane="1" departPos="35.27" departSpeed="max" arrivalLane="0" arrivalPos="77.10">
        <route edges="gneE104 gneE105 edge-west-WS gneE143 gneE145 gneE146 gneE161 gneE164 gneE124.71 gneE110"/>
    </vehicle>
    <vehicle id="-flow-random-route-32c7e4fd-3e3f-4c8b-b7d2-4243e49c4486--8156123710257928893-26-0.2" type="actor-car-2650634448464563273" depart="240.00" departLane="1" departPos="21.25" departSpeed="max" arrivalLane="1" arrivalPos="1.05">
        <route edges="gneE105 edge-west-WS gneE143 gneE145 gneE146 gneE148 -gneE114 -gneE124 gneE100 gneE91"/>
    </vehicle>
    <vehicle id="-flow-random-route-444d1c19-0aab-4b59-a0b7-6ab0035330e8--8156123710257928893-7-0.2" type="actor-car-2650634448464563273" depart="240.00" departLane="0" departPos="47.44" departSpeed="max" arrivalLane="0" arrivalPos="50.54">
        <route edges="gneE124 gneE124.71 gneE114 gneE125"/>
    </vehicle>
    <vehicle id="-flow-random-route-4afe82b9-c15d-401c-bf76-66ebab738b81--8156123710257928893-20-0.2" type="actor-car-2650634448464563273" depart="240.00" departLane="0" departPos="53.80" departSpeed="max" arrivalLane="0" arrivalPos="7.20">
        <route edges="gneE124.71 gneE135 gneE137 gneE138 gneE104 gneE105 edge-west-WS gneE143 gneE145 gneE146"/>
    </vehicle>
    <vehicle id="-flow-random-route-4eddd91b-933a-4b59-8c69-b46e8ae4525b--8156123710257928893-0-0.2" type="actor-car-2650634448464563273" depart="240.00" departLane="0" departPos="23.83" departSpeed="max" arrivalLane="0" arrivalPos="82.00">
        <route edges="-gneE124 gneE100 gneE91 edge-east-EN edge-north-NW edge-west-WS gneE143 gneE145 gneE146 gneE148"/>
    </vehicle>
    <vehicle id="-flow-random-route-65e5124f-02c9-45ab-8f4f-dd107c3eab01--8156123710257928893-10-0.2" type="actor-car-2650634448464563273" depart="240.00" departLane="0" departPos="53.29" departSpeed="max" arrivalLane="0" arrivalPos="75.48">
        <route edges="gneE100 gneE91 edge-east-EN edge-north-NW edge-west-WS gneE143 gneE145 gneE146 gneE148 -gneE114"/>
    </vehicle>
    <vehicle id="-flow-random-route-675ebfcb-bf6a-47e8-a3c5-01f6941ad6db--8156123710257928893-24-0.2" type="actor-car-2650634448464563273" depart="240.00" departLane="0" departPos="55.81" departSpeed="max" arrivalLane="0" arrivalPos="32.44">
        <route edges="gneE129 -gneE135"/>
    </vehicle>
    <vehicle id="-flow-random-route-692edeba-18d0-408e-9001-ebec1076b1fe--8156123710257928893-16-0.2" type="actor-car-2650634448464563273" depart="240.00" departLane="0" departPos="49.79" departSpeed="max" arrivalLane="0" arrivalPos="2.95">
        <route edges="gneE138 gneE104 gneE105 edge-west-WS edge-south-SE edge-east-EN"/>
    </vehicle>
    <vehicle id="-flow-random-route-70d4d942-22e3-41d3-91cc-bdebf97cfbb4--8156123710257928893-23-0.2" type="actor-car-2650634448464563273" depart="240.00" departLane="0" departPos="11.08" departSpeed="max" arrivalLane="0" arrivalPos="43.83">
        <route edges="edge-north-NW edge-west-WS edge-south-SE edge-east-EN edge-north-NW edge-west-WS gneE143 gneE144 gneE124 gneE124.71"/>
    </vehicle>
    <vehicle id="-flow-random-route-816709ad-55f1-490b-9b9a-db13ea65991e--8156123710257928893-22-0.2" type="actor-car-2650634448464563273" depart="240.00" departLane="0" departPos="30.81" departSpeed="max" arrivalLane="0" arrivalPos="9.50">
        <route edges="edge-south-SE edge-east-EN edge-north-NW edge-west-WS gneE143 gneE144 gneE124 gneE124.71 gneE110 gneE140"/>
    </vehicle>
    <vehicle id="-flow-random-route-8376ea66-64a4-4799-87d4-2e527bb7a0c5--8156123710257928893-8-0.2" type="actor-car-2650634448464563273" depart="240.00" departLane="0" departPos="111.08" departSpeed="max" arrivalLane="0" arrivalPos="56.32">
        <route edges="gneE148 gneE125 gneE129 -gneE135 gneE114 gneE125 gneE129 -gneE135 -gneE124 gneE100"/>
    </vehicle>
    <vehicle id="-flow-random-route-889424f8-3495-46bf-882a-fae8b6bfa8da--8156123710257928893-1-0.2" type="actor-car-2650634448464563273" depart="240.00" departLane="0" departPos="122.31" departSpeed="max" arrivalLane="0" arrivalPos="45.19">
        <route edges="-gneE110 gneE135 -gneE129 -gneE125 -gneE114 gneE135 gneE137 gneE138 gneE104 gneE105"/>
    </vehicle>
    <vehicle id="-flow-random-route-8c4c00da-5c42-4220-98d4-26698ba82ec8--8156123710257928893-12-0.2" type="actor-car-2650634448464563273" depart="240.00" departLane="0" departPos="80.10" departSpeed="max" arrivalLane="1" arrivalPos="29.06">
        <route edges="-gneE129 -gneE125 -gneE114 gneE135 gneE137 gneE138 gneE140 edge-north-NW edge-west-WS gneE143"/>
    </vehicle>
    <vehicle id="-flow-random-route-8d3f933b-ac2c-46fc-a65a-8d287aef03bb--8156123710257928893-9-0.2" type="actor-car-2650634448464563273" depart="240.00" departLane="1" departPos="85.84" departSpeed="max" arrivalLane="0" arrivalPos="55.00">
        <route edges="gneE105 edge-west-WS gneE143 gneE144 gneE124 gneE124.71 gneE114 gneE125 gneE129 -gneE135"/>
    </vehicle>
    <vehicle id="-flow-random-route-8f280ade-ab5f-445f-a0db-e04eaebbc1e0--8156123710257928893-19-0.2" type="actor-car-2650634448464563273" depart="240.00" departLane="0" departPos="14.67" departSpeed="max" arrivalLane="1" arrivalPos="1.13">
        <route edges="gneE135 gneE137 gneE138 gneE140 edge-north-NW edge-west-WS gneE143 gneE144 gneE100 gneE91"/>
    </vehicle>