<?xml version="1.0" encoding="UTF-8"?>

<!-- generated on Sun Aug 30 13:07:47 2020 by Eclipse SUMO duarouter Version 1.6.0
<configuration xmlns:xsi="http://www.w3.org/2001/XMLSchema-instance" xsi:noNamespaceSchemaLocation="http://sumo.dlr.de/xsd/duarouterConfiguration.xsd">

    <input>
        <net-file value="../dataset_public/mixed_loop/its_merge_a/map.net.xml"/>
        <route-files value="/tmp/tmpqjc4womb/trips.trips.xml"/>
    </input>

    <output>
        <output-file value="../dataset_public/mixed_loop/its_merge_a/traffic/30_patient_car.rou.xml"/>
        <alternatives-output value="../dataset_public/mixed_loop/its_merge_a/traffic/30_patient_car.rou.alt.xml"/>
    </output>

    <processing>
        <unsorted-input value="true"/>
        <repair value="true"/>
    </processing>

    <report>
        <error-log value="/tmp/smarts/_duarouter_routing/traffic/30_patient_car.log"/>
        <no-step-log value="true"/>
    </report>

    <random_number>
        <seed value="42"/>
    </random_number>

</configuration>
-->

<routes xmlns:xsi="http://www.w3.org/2001/XMLSchema-instance" xsi:noNamespaceSchemaLocation="http://sumo.dlr.de/xsd/routes_file.xsd">
    <vType id="actor-car-3037407356042874812" minGap="2.50" speedFactor="normc(0.50,0.20,0.20,2.00)" vClass="passenger" impatience="0.50" lcCooperative="0.5" lcImpatience="0" jmDriveAfterYellowTime="1.0" accel="2.6" decel="4.5" sigma="0.5"/>
    <vehicle id="-flow-random-route-03f7d0af-186b-475f-ba7f-76cf510b15bf--7007441332108479525-21-0.0" type="actor-car-3037407356042874812" depart="0.00" departLane="0" departPos="40.83" departSpeed="max" arrivalLane="0" arrivalPos="85.95">
        <route edges="gneE120 gneE121 gneE110 gneE112 -gneE93 -gneE111 -gneE110 -gneE121 -gneE120 -gneE97"/>
    </vehicle>
    <vehicle id="-flow-random-route-0d235a71-6ac6-48f2-b050-5baa8f49c1b1--7007441332108479525-8-0.0" type="actor-car-3037407356042874812" depart="0.00" departLane="0" departPos="44.95" departSpeed="max" arrivalLane="0" arrivalPos="55.98">
        <route edges="-gneE93 -gneE111 gneE112 -gneE93 -gneE111 gneE112 gneE117 gneE118 gneE119 -gneE121"/>
    </vehicle>
    <vehicle id="-flow-random-route-0ee9fa0e-fa0c-441c-b74b-55273acaf593--7007441332108479525-19-0.0" type="actor-car-3037407356042874812" depart="0.00" departLane="0" departPos="42.50" departSpeed="max" arrivalLane="0" arrivalPos="60.97">
        <route edges="-gneE119 -gneE118 -gneE117 -gneE93 -gneE111 gneE112 gneE117 gneE118 gneE119 -gneE121"/>
    </vehicle>
    <vehicle id="-flow-random-route-30737f58-f870-4c14-8189-553f3c884d62--7007441332108479525-13-0.0" type="actor-car-3037407356042874812" depart="0.00" departLane="0" departPos="25.85" departSpeed="max" arrivalLane="0" arrivalPos="80.54">
        <route edges="-gneE121 -gneE120 -gneE97 gneE93 -gneE112 gneE111 gneE93 -gneE112 gneE111 gneE97"/>
    </vehicle>
    <vehicle id="-flow-random-route-330572b0-a2ce-4e07-b6bd-11d034c0f8d6--7007441332108479525-6-0.0" type="actor-car-3037407356042874812" depart="0.00" departLane="0" departPos="20.90" departSpeed="max" arrivalLane="0" arrivalPos="62.42">
        <route edges="-gneE121 -gneE120 -gneE97 gneE93 gneE117 gneE118 gneE119 gneE110 gneE112 -gneE93"/>
    </vehicle>
    <vehicle id="-flow-random-route-391e91d2-c7c0-44e1-8222-57e07c8deab0--7007441332108479525-17-0.0" type="actor-car-3037407356042874812" depart="0.00" departLane="0" departPos="70.55" departSpeed="max" arrivalLane="0" arrivalPos="15.44">
        <route edges="-gneE119 -gneE118 -gneE117 -gneE112 -gneE110 -gneE121 -gneE120 -gneE97 gneE93 gneE117"/>
    </vehicle>
    <vehicle id="-flow-random-route-53a90b2d-272b-4a6d-8697-cf65e19e4a9e--7007441332108479525-3-0.0" type="actor-car-3037407356042874812" depart="0.00" departLane="0" departPos="11.64" departSpeed="max" arrivalLane="0" arrivalPos="45.61">
        <route edges="gneE93 gneE117 gneE118 gneE119 gneE110 gneE112 gneE117 gneE118 gneE119 -gneE121"/>
    </vehicle>
    <vehicle id="-flow-random-route-62e32f43-3ae5-45fd-bf02-2485730c7a64--7007441332108479525-23-0.0" type="actor-car-3037407356042874812" depart="0.00" departLane="0" departPos="22.04" departSpeed="max" arrivalLane="0" arrivalPos="38.70">
        <route edges="gneE117 gneE118 gneE119 -gneE121 -gneE120 -gneE97 gneE93 -gneE112 -gneE110 -gneE119"/>
    </vehicle>
    <vehicle id="-flow-random-route-655f69d3-98cd-432d-910f-ef4bc6eddf31--7007441332108479525-26-0.0" type="actor-car-3037407356042874812" depart="0.00" departLane="0" departPos="117.29" departSpeed="max" arrivalLane="0" arrivalPos="64.12">
        <route edges="-gneE119 -gneE118 -gneE117 -gneE112 gneE111 gneE93 gneE117 gneE118 gneE119 gneE110"/>
    </vehicle>
    <vehicle id="-flow-random-route-66f2416c-5c56-46c5-8c90-145982509a16--7007441332108479525-18-0.0" type="actor-car-3037407356042874812" depart="0.00" departLane="0" departPos="65.95" departSpeed="max" arrivalLane="0" arrivalPos="7.81">
        <route edges="gneE112 -gneE93 gneE97 gneE120"/>
    </vehicle>
    <vehicle id="-flow-random-route-6c1a5ee4-1782-4403-9572-3ef5cf42789b--7007441332108479525-4-0.0" type="actor-car-3037407356042874812" depart="0.00" departLane="0" departPos="49.86" departSpeed="max" arrivalLane="0" arrivalPos="63.23">
        <route edges="gneE97 gneE120 gneE121 -gneE119"/>
    </vehicle>
    <vehicle id="-flow-random-route-78e2dd85-de79-4b99-ab18-fd3e0027635d--7007441332108479525-14-0.0" type="actor-car-3037407356042874812" depart="0.00" departLane="0" departPos="48.02" departSpeed="max" arrivalLane="0" arrivalPos="115.38">
        <route edges="-gneE112 gneE111 gneE93 gneE117 gneE118"/>
    </vehicle>
    <vehicle id="-flow-random-route-814ee3a6-bf87-4269-b85e-0b7f5c96a5d7--7007441332108479525-5-0.0" type="actor-car-3037407356042874812" depart="0.00" departLane="0" departPos="70.25" departSpeed="max" arrivalLane="0" arrivalPos="68.58">
        <route edges="-gneE97 gneE93 -gneE112 -gneE110 -gneE119 -gneE118 -gneE117 -gneE112 -gneE110 -gneE121"/>
    </vehicle>
    <vehicle id="-flow-random-route-827dc5f2-304a-4476-97f6-db7528d2838e--7007441332108479525-27-0.0" type="actor-car-3037407356042874812" depart="0.00" departLane="0" departPos="81.43" departSpeed="max" arrivalLane="0" arrivalPos="172.86">
        <route edges="-gneE112 -gneE110 -gneE121 -gneE120"/>
    </vehicle>
    <vehicle id="-flow-random-route-9b6b61a7-cbd1-47fc-a2f8-2a5eb38c817a--7007441332108479525-0-0.0" type="actor-car-3037407356042874812" depart="0.00" departLane="0" departPos="12.64" departSpeed="max" arrivalLane="0" arrivalPos="9.81">
        <route edges="gneE111 gneE93 -gneE112 gneE111 gneE97 gneE120 gneE121 -gneE119 -gneE118 -gneE117"/>
    </vehicle>
    <vehicle id="-flow-random-route-a2007ef1-2168-4295-95f8-2b2762257f70--7007441332108479525-20-0.0" type="actor-car-3037407356042874812" depart="0.00" departLane="0" departPos="4.72" departSpeed="max" arrivalLane="0" arrivalPos="26.15">
        <route edges="gneE111 gneE93 -gneE112 -gneE110 -gneE119 -gneE118 -gneE117 -gneE93 -gneE111 gneE112"/>
    </vehicle>
    <vehicle id="-flow-random-route-a50b66b8-46bb-4dd7-a457-86ae64d6f082--7007441332108479525-11-0.0" type="actor-car-3037407356042874812" depart="0.00" departLane="0" departPos="91.95" departSpeed="max" arrivalLane="0" arrivalPos="21.63">
        <route edges="-gneE112 -gneE110 -gneE119 -gneE118 -gneE117 -gneE93 gneE97 gneE120 gneE121 gneE110"/>
    </vehicle>
    <vehicle id="-flow-random-route-a9cb9827-5638-4151-8a23-b136e7029cef--7007441332108479525-28-0.0" type="actor-car-3037407356042874812" depart="0.00" departLane="0" departPos="127.94" departSpeed="max" arrivalLane="0" arrivalPos="89.36">
        <route edges="-gneE120 -gneE97 gneE93 -gneE112 gneE111 gneE97 gneE120 gneE121 gneE110 gneE112"/>
    </vehicle>
    <vehicle id="-flow-random-route-aeacdb43-dd9e-4cbe-8870-b600b6989fee--7007441332108479525-12-0.0" type="actor-car-3037407356042874812" depart="0.00" departLane="0" departPos="14.37" departSpeed="max" arrivalLane="0" arrivalPos="44.56">
        <route edges="-gneE93 gneE97 gneE120 gneE121 gneE110"/>
    </vehicle>
    <vehicle id="-flow-random-route-b1d23e40-d964-48a5-adfb-921cf492703d--7007441332108479525-25-0.0" type="actor-car-3037407356042874812" depart="0.00" departLane="0" departPos="21.69" departSpeed="max" arrivalLane="0" arrivalPos="165.19">
        <route edges="gneE112 -gneE93 -gneE111 -gneE110 -gneE119 -gneE118 -gneE117 -gneE93 gneE97 gneE120"/>
    </vehicle>
    <vehicle id="-flow-random-route-b211c905-acca-4814-89af-b203a67fae87--7007441332108479525-22-0.0" type="actor-car-3037407356042874812" depart="0.00" departLane="0" departPos="60.05" departSpeed="max" arrivalLane="0" arrivalPos="68.78">
        <route edges="gneE93 gneE117 gneE118"/>
    </vehicle>
    <vehicle id="-flow-random-route-b4c4a570-c035-42a3-b03a-1ed91c9f2a63--7007441332108479525-10-0.0" type="actor-car-3037407356042874812" depart="0.00" departLane="0" departPos="88.89" departSpeed="max" arrivalLane="0" arrivalPos="54.95">
        <route edges="-gneE118 -gneE117 -gneE112 -gneE110"/>
    </vehicle>
    <vehicle id="-flow-random-route-b4cfd443-b274-4b0d-a5cf-5d321e2d4fc0--7007441332108479525-7-0.0" type="actor-car-3037407356042874812" depart="0.00" departLane="0" departPos="25.00" departSpeed="max" arrivalLane="0" arrivalPos="8.56">
        <route edges="-gneE112 gneE111 gneE93 gneE117 gneE118 gneE119 gneE110 gneE111 gneE97 gneE120"/>
    </vehicle>
    <vehicle id="-flow-random-route-bb9507d1-eb0a-4771-88bc-56e48b8a3a7b--7007441332108479525-1-0.0" type="actor-car-3037407356042874812" depart="0.00" departLane="0" departPos="32.55" departSpeed="max" arrivalLane="0" arrivalPos="144.82">
        <route edges="-gneE112 -gneE110 -gneE121 -gneE120"/>
    </vehicle>
    <vehicle id="-flow-random-route-c80508c5-9557-4322-a5c6-d00c25913e99--7007441332108479525-9-0.0" type="actor-car-3037407356042874812" depart="0.00" departLane="0" departPos="60.93" departSpeed="max" arrivalLane="0" arrivalPos="55.91">
        <route edges="-gneE117 -gneE93 gneE97 gneE120 gneE121 -gneE119 -gneE118 -gneE117 -gneE112 gneE111"/>
    </vehicle>
    <vehicle id="-flow-random-route-d7a0a7be-4341-4a0c-ac7b-ac88d52e7f5d--7007441332108479525-24-0.0" type="actor-car-3037407356042874812" depart="0.00" departLane="0" departPos="93.59" departSpeed="max" arrivalLane="0" arrivalPos="17.89">
        <route edges="gneE121 -gneE119 -gneE118 -gneE117 -gneE93 -gneE111 gneE112 gneE117 gneE118 gneE119"/>
    </vehicle>
    <vehicle id="-flow-random-route-d82b9419-c6b9-4da1-8974-e5445243cb80--7007441332108479525-29-0.0" type="actor-car-3037407356042874812" depart="0.00" departLane="0" departPos="26.34" departSpeed="max" arrivalLane="0" arrivalPos="153.13">
        <route edges="gneE117 gneE118"/>
    </vehicle>
    <vehicle id="-flow-random-route-dd60b736-2da0-4eee-b7e6-fb0dfa35faa6--7007441332108479525-16-0.0" type="actor-car-3037407356042874812" depart="0.00" departLane="0" departPos="12.65" departSpeed="max" arrivalLane="0" arrivalPos="112.26">
        <route edges="-gneE111 -gneE110 -gneE119 -gneE118 -gneE117 -gneE93 -gneE111 gneE112 gneE117 gneE118"/>
    </vehicle>
    <vehicle id="-flow-random-route-f7b86d41-826d-4e09-a626-13782399923c--7007441332108479525-2-0.0" type="actor-car-3037407356042874812" depart="0.00" departLane="0" departPos="31.02" departSpeed="max" arrivalLane="0" arrivalPos="6.52">
        <route edges="-gneE120 -gneE97 -gneE111 -gneE110 -gneE119 -gneE118 -gneE117 -gneE93 gneE97 gneE120"/>
    </vehicle>
    <vehicle id="-flow-random-route-f930980f-9b3b-4730-bf7f-825bf49167c4--7007441332108479525-15-0.0" type="actor-car-3037407356042874812" depart="0.00" departLane="0" departPos="155.95" departSpeed="max" arrivalLane="0" arrivalPos="36.11">
        <route edges="-gneE120 -gneE97 gneE93 -gneE112 gneE111 gneE93 gneE117 gneE118 gneE119 -gneE121"/>
    </vehicle>
    <vehicle id="-flow-random-route-03f7d0af-186b-475f-ba7f-76cf510b15bf--7007441332108479525-21-0.1" type="actor-car-3037407356042874812" depart="120.00" departLane="0" departPos="40.83" departSpeed="max" arrivalLane="0" arrivalPos="85.95">
        <route edges="gneE120 gneE121 gneE110 gneE112 -gneE93 -gneE111 -gneE110 -gneE121 -gneE120 -gneE97"/>
    </vehicle>
    <vehicle id="-flow-random-route-0d235a71-6ac6-48f2-b050-5baa8f49c1b1--7007441332108479525-8-0.1" type="actor-car-3037407356042874812" depart="120.00" departLane="0" departPos="44.95" departSpeed="max" arrivalLane="0" arrivalPos="55.98">
        <route edges="-gneE93 -gneE111 gneE112 -gneE93 -gneE111 gneE112 gneE117 gneE118 gneE119 -gneE121"/>
    </vehicle>
    <vehicle id="-flow-random-route-0ee9fa0e-fa0c-441c-b74b-55273acaf593--7007441332108479525-19-0.1" type="actor-car-3037407356042874812" depart="120.00" departLane="0" departPos="42.50" departSpeed="max" arrivalLane="0" arrivalPos="60.97">
        <route edges="-gneE119 -gneE118 -gneE117 -gneE93 -gneE111 gneE112 gneE117 gneE118 gneE119 -gneE121"/>
    </vehicle>
    <vehicle id="-flow-random-route-30737f58-f870-4c14-8189-553f3c884d62--7007441332108479525-13-0.1" type="actor-car-3037407356042874812" depart="120.00" departLane="0" departPos="25.85" departSpeed="max" arrivalLane="0" arrivalPos="80.54">
        <route edges="-gneE121 -gneE120 -gneE97 gneE93 -gneE112 gneE111 gneE93 -gneE112 gneE111 gneE97"/>
    </vehicle>
    <vehicle id="-flow-random-route-330572b0-a2ce-4e07-b6bd-11d034c0f8d6--7007441332108479525-6-0.1" type="actor-car-3037407356042874812" depart="120.00" departLane="0" departPos="20.90" departSpeed="max" arrivalLane="0" arrivalPos="62.42">
        <route edges="-gneE121 -gneE120 -gneE97 gneE93 gneE117 gneE118 gneE119 gneE110 gneE112 -gneE93"/>
    </vehicle>
    <vehicle id="-flow-random-route-391e91d2-c7c0-44e1-8222-57e07c8deab0--7007441332108479525-17-0.1" type="actor-car-3037407356042874812" depart="120.00" departLane="0" departPos="70.55" departSpeed="max" arrivalLane="0" arrivalPos="15.44">
        <route edges="-gneE119 -gneE118 -gneE117 -gneE112 -gneE110 -gneE121 -gneE120 -gneE97 gneE93 gneE117"/>
    </vehicle>
    <vehicle id="-flow-random-route-53a90b2d-272b-4a6d-8697-cf65e19e4a9e--7007441332108479525-3-0.1" type="actor-car-3037407356042874812" depart="120.00" departLane="0" departPos="11.64" departSpeed="max" arrivalLane="0" arrivalPos="45.61">
        <route edges="gneE93 gneE117 gneE118 gneE119 gneE110 gneE112 gneE117 gneE118 gneE119 -gneE121"/>
    </vehicle>
    <vehicle id="-flow-random-route-62e32f43-3ae5-45fd-bf02-2485730c7a64--7007441332108479525-23-0.1" type="actor-car-3037407356042874812" depart="120.00" departLane="0" departPos="22.04" departSpeed="max" arrivalLane="0" arrivalPos="38.70">
        <route edges="gneE117 gneE118 gneE119 -gneE121 -gneE120 -gneE97 gneE93 -gneE112 -gneE110 -gneE119"/>
    </vehicle>
    <vehicle id="-flow-random-route-655f69d3-98cd-432d-910f-ef4bc6eddf31--7007441332108479525-26-0.1" type="actor-car-3037407356042874812" depart="120.00" departLane="0" departPos="117.29" departSpeed="max" arrivalLane="0" arrivalPos="64.12">
        <route edges="-gneE119 -gneE118 -gneE117 -gneE112 gneE111 gneE93 gneE117 gneE118 gneE119 gneE110"/>
    </vehicle>
    <vehicle id="-flow-random-route-66f2416c-5c56-46c5-8c90-145982509a16--7007441332108479525-18-0.1" type="actor-car-3037407356042874812" depart="120.00" departLane="0" departPos="65.95" departSpeed="max" arrivalLane="0" arrivalPos="7.81">
        <route edges="gneE112 -gneE93 gneE97 gneE120"/>
    </vehicle>
    <vehicle id="-flow-random-route-6c1a5ee4-1782-4403-9572-3ef5cf42789b--7007441332108479525-4-0.1" type="actor-car-3037407356042874812" depart="120.00" departLane="0" departPos="49.86" departSpeed="max" arrivalLane="0" arrivalPos="63.23">
        <route edges="gneE97 gneE120 gneE121 -gneE119"/>
    </vehicle>
    <vehicle id="-flow-random-route-78e2dd85-de79-4b99-ab18-fd3e0027635d--7007441332108479525-14-0.1" type="actor-car-3037407356042874812" depart="120.00" departLane="0" departPos="48.02" departSpeed="max" arrivalLane="0" arrivalPos="115.38">
        <route edges="-gneE112 gneE111 gneE93 gneE117 gneE118"/>
    </vehicle>
    <vehicle id="-flow-random-route-814ee3a6-bf87-4269-b85e-0b7f5c96a5d7--7007441332108479525-5-0.1" type="actor-car-3037407356042874812" depart="120.00" departLane="0" departPos="70.25" departSpeed="max" arrivalLane="0" arrivalPos="68.58">
        <route edges="-gneE97 gneE93 -gneE112 -gneE110 -gneE119 -gneE118 -gneE117 -gneE112 -gneE110 -gneE121"/>
    </vehicle>
    <vehicle id="-flow-random-route-827dc5f2-304a-4476-97f6-db7528d2838e--7007441332108479525-27-0.1" type="actor-car-3037407356042874812" depart="120.00" departLane="0" departPos="81.43" departSpeed="max" arrivalLane="0" arrivalPos="172.86">
        <route edges="-gneE112 -gneE110 -gneE121 -gneE120"/>
    </vehicle>
    <vehicle id="-flow-random-route-9b6b61a7-cbd1-47fc-a2f8-2a5eb38c817a--7007441332108479525-0-0.1" type="actor-car-3037407356042874812" depart="120.00" departLane="0" departPos="12.64" departSpeed="max" arrivalLane="0" arrivalPos="9.81">
        <route edges="gneE111 gneE93 -gneE112 gneE111 gneE97 gneE120 gneE121 -gneE119 -gneE118 -gneE117"/>
    </vehicle>
    <vehicle id="-flow-random-route-a2007ef1-2168-4295-95f8-2b2762257f70--7007441332108479525-20-0.1" type="actor-car-3037407356042874812" depart="120.00" departLane="0" departPos="4.72" departSpeed="max" arrivalLane="0" arrivalPos="26.15">
        <route edges="gneE111 gneE93 -gneE112 -gneE110 -gneE119 -gneE118 -gneE117 -gneE93 -gneE111 gneE112"/>
    </vehicle>
    <vehicle id="-flow-random-route-a50b66b8-46bb-4dd7-a457-86ae64d6f082--7007441332108479525-11-0.1" type="actor-car-3037407356042874812" depart="120.00" departLane="0" departPos="91.95" departSpeed="max" arrivalLane="0" arrivalPos="21.63">
        <route edges="-gneE112 -gneE110 -gneE119 -gneE118 -gneE117 -gneE93 gneE97 gneE120 gneE121 gneE110"/>
    </vehicle>
    <vehicle id="-flow-random-route-a9cb9827-5638-4151-8a23-b136e7029cef--7007441332108479525-28-0.1" type="actor-car-3037407356042874812" depart="120.00" departLane="0" departPos="127.94" departSpeed="max" arrivalLane="0" arrivalPos="89.36">
        <route edges="-gneE120 -gneE97 gneE93 -gneE112 gneE111 gneE97 gneE120 gneE121 gneE110 gneE112"/>
    </vehicle>
    <vehicle id="-flow-random-route-aeacdb43-dd9e-4cbe-8870-b600b6989fee--7007441332108479525-12-0.1" type="actor-car-3037407356042874812" depart="120.00" departLane="0" departPos="14.37" departSpeed="max" arrivalLane="0" arrivalPos="44.56">
        <route edges="-gneE93 gneE97 gneE120 gneE121 gneE110"/>
    </vehicle>
    <vehicle id="-flow-random-route-b1d23e40-d964-48a5-adfb-921cf492703d--7007441332108479525-25-0.1" type="actor-car-3037407356042874812" depart="120.00" departLane="0" departPos="21.69" departSpeed="max" arrivalLane="0" arrivalPos="165.19">
        <route edges="gneE112 -gneE93 -gneE111 -gneE110 -gneE119 -gneE118 -gneE117 -gneE93 gneE97 gneE120"/>
    </vehicle>
    <vehicle id="-flow-random-route-b211c905-acca-4814-89af-b203a67fae87--7007441332108479525-22-0.1" type="actor-car-3037407356042874812" depart="120.00" departLane="0" departPos="60.05" departSpeed="max" arrivalLane="0" arrivalPos="68.78">
        <route edges="gneE93 gneE117 gneE118"/>
    </vehicle>
    <vehicle id="-flow-random-route-b4c4a570-c035-42a3-b03a-1ed91c9f2a63--7007441332108479525-10-0.1" type="actor-car-3037407356042874812" depart="120.00" departLane="0" departPos="88.89" departSpeed="max" arrivalLane="0" arrivalPos="54.95">
        <route edges="-gneE118 -gneE117 -gneE112 -gneE110"/>
    </vehicle>
    <vehicle id="-flow-random-route-b4cfd443-b274-4b0d-a5cf-5d321e2d4fc0--7007441332108479525-7-0.1" type="actor-car-3037407356042874812" depart="120.00" departLane="0" departPos="25.00" departSpeed="max" arrivalLane="0" arrivalPos="8.56">
        <route edges="-gneE112 gneE111 gneE93 gneE117 gneE118 gneE119 gneE110 gneE111 gneE97 gneE120"/>
    </vehicle>
    <vehicle id="-flow-random-route-bb9507d1-eb0a-4771-88bc-56e48b8a3a7b--7007441332108479525-1-0.1" type="actor-car-3037407356042874812" depart="120.00" departLane="0" departPos="32.55" departSpeed="max" arrivalLane="0" arrivalPos="144.82">
        <route edges="-gneE112 -gneE110 -gneE121 -gneE120"/>
    </vehicle>
    <vehicle id="-flow-random-route-c80508c5-9557-4322-a5c6-d00c25913e99--7007441332108479525-9-0.1" type="actor-car-3037407356042874812" depart="120.00" departLane="0" departPos="60.93" departSpeed="max" arrivalLane="0" arrivalPos="55.91">
        <route edges="-gneE117 -gneE93 gneE97 gneE120 gneE121 -gneE119 -gneE118 -gneE117 -gneE112 gneE111"/>
    </vehicle>
    <vehicle id="-flow-random-route-d7a0a7be-4341-4a0c-ac7b-ac88d52e7f5d--7007441332108479525-24-0.1" type="actor-car-3037407356042874812" depart="120.00" departLane="0" departPos="93.59" departSpeed="max" arrivalLane="0" arrivalPos="17.89">
        <route edges="gneE121 -gneE119 -gneE118 -gneE117 -gneE93 -gneE111 gneE112 gneE117 gneE118 gneE119"/>
    </vehicle>
    <vehicle id="-flow-random-route-d82b9419-c6b9-4da1-8974-e5445243cb80--7007441332108479525-29-0.1" type="actor-car-3037407356042874812" depart="120.00" departLane="0" departPos="26.34" departSpeed="max" arrivalLane="0" arrivalPos="153.13">
        <route edges="gneE117 gneE118"/>
    </vehicle>
    <vehicle id="-flow-random-route-dd60b736-2da0-4eee-b7e6-fb0dfa35faa6--7007441332108479525-16-0.1" type="actor-car-3037407356042874812" depart="120.00" departLane="0" departPos="12.65" departSpeed="max" arrivalLane="0" arrivalPos="112.26">
        <route edges="-gneE111 -gneE110 -gneE119 -gneE118 -gneE117 -gneE93 -gneE111 gneE112 gneE117 gneE118"/>
    </vehicle>
    <vehicle id="-flow-random-route-f7b86d41-826d-4e09-a626-13782399923c--7007441332108479525-2-0.1" type="actor-car-3037407356042874812" depart="120.00" departLane="0" departPos="31.02" departSpeed="max" arrivalLane="0" arrivalPos="6.52">
        <route edges="-gneE120 -gneE97 -gneE111 -gneE110 -gneE119 -gneE118 -gneE117 -gneE93 gneE97 gneE120"/>
    </vehicle>
    <vehicle id="-flow-random-route-f930980f-9b3b-4730-bf7f-825bf49167c4--7007441332108479525-15-0.1" type="actor-car-3037407356042874812" depart="120.00" departLane="0" departPos="155.95" departSpeed="max" arrivalLane="0" arrivalPos="36.11">
        <route edges="-gneE120 -gneE97 gneE93 -gneE112 gneE111 gneE93 gneE117 gneE118 gneE119 -gneE121"/>
    </vehicle>
    <vehicle id="-flow-random-route-03f7d0af-186b-475f-ba7f-76cf510b15bf--7007441332108479525-21-0.2" type="actor-car-3037407356042874812" depart="240.00" departLane="0" departPos="40.83" departSpeed="max" arrivalLane="0" arrivalPos="85.95">
        <route edges="gneE120 gneE121 gneE110 gneE112 -gneE93 -gneE111 -gneE110 -gneE121 -gneE120 -gneE97"/>
    </vehicle>
    <vehicle id="-flow-random-route-0d235a71-6ac6-48f2-b050-5baa8f49c1b1--7007441332108479525-8-0.2" type="actor-car-3037407356042874812" depart="240.00" departLane="0" departPos="44.95" departSpeed="max" arrivalLane="0" arrivalPos="55.98">
        <route edges="-gneE93 -gneE111 gneE112 -gneE93 -gneE111 gneE112 gneE117 gneE118 gneE119 -gneE121"/>
    </vehicle>
    <vehicle id="-flow-random-route-0ee9fa0e-fa0c-441c-b74b-55273acaf593--7007441332108479525-19-0.2" type="actor-car-3037407356042874812" depart="240.00" departLane="0" departPos="42.50" departSpeed="max" arrivalLane="0" arrivalPos="60.97">
        <route edges="-gneE119 -gneE118 -gneE117 -gneE93 -gneE111 gneE112 gneE117 gneE118 gneE119 -gneE121"/>
    </vehicle>
    <vehicle id="-flow-random-route-30737f58-f870-4c14-8189-553f3c884d62--7007441332108479525-13-0.2" type="actor-car-3037407356042874812" depart="240.00" departLane="0" departPos="25.85" departSpeed="max" arrivalLane="0" arrivalPos="80.54">
        <route edges="-gneE121 -gneE120 -gneE97 gneE93 -gneE112 gneE111 gneE93 -gneE112 gneE111 gneE97"/>
    </vehicle>
    <vehicle id="-flow-random-route-330572b0-a2ce-4e07-b6bd-11d034c0f8d6--7007441332108479525-6-0.2" type="actor-car-3037407356042874812" depart="240.00" departLane="0" departPos="20.90" departSpeed="max" arrivalLane="0" arrivalPos="62.42">
        <route edges="-gneE121 -gneE120 -gneE97 gneE93 gneE117 gneE118 gneE119 gneE110 gneE112 -gneE93"/>
    </vehicle>
    <vehicle id="-flow-random-route-391e91d2-c7c0-44e1-8222-57e07c8deab0--7007441332108479525-17-0.2" type="actor-car-3037407356042874812" depart="240.00" departLane="0" departPos="70.55" departSpeed="max" arrivalLane="0" arrivalPos="15.44">
        <route edges="-gneE119 -gneE118 -gneE117 -gneE112 -gneE110 -gneE121 -gneE120 -gneE97 gneE93 gneE117"/>
    </vehicle>
    <vehicle id="-flow-random-route-53a90b2d-272b-4a6d-8697-cf65e19e4a9e--7007441332108479525-3-0.2" type="actor-car-3037407356042874812" depart="240.00" departLane="0" departPos="11.64" departSpeed="max" arrivalLane="0" arrivalPos="45.61">
        <route edges="gneE93 gneE117 gneE118 gneE119 gneE110 gneE112 gneE117 gneE118 gneE119 -gneE121"/>
    </vehicle>
    <vehicle id="-flow-random-route-62e32f43-3ae5-45fd-bf02-2485730c7a64--7007441332108479525-23-0.2" type="actor-car-3037407356042874812" depart="240.00" departLane="0" departPos="22.04" departSpeed="max" arrivalLane="0" arrivalPos="38.70">
        <route edges="gneE117 gneE118 gneE119 -gneE121 -gneE120 -gneE97 gneE93 -gneE112 -gneE110 -gneE119"/>
    </vehicle>
    <vehicle id="-flow-random-route-655f69d3-98cd-432d-910f-ef4bc6eddf31--7007441332108479525-26-0.2" type="actor-car-3037407356042874812" depart="240.00" departLane="0" departPos="117.29" departSpeed="max" arrivalLane="0" arrivalPos="64.12">
        <route edges="-gneE119 -gneE118 -gneE117 -gneE112 gneE111 gneE93 gneE117 gneE118 gneE119 gneE110"/>
    </vehicle>
    <vehicle id="-flow-random-route-66f2416c-5c56-46c5-8c90-145982509a16--7007441332108479525-18-0.2" type="actor-car-3037407356042874812" depart="240.00" departLane="0" departPos="65.95" departSpeed="max" arrivalLane="0" arrivalPos="7.81">
        <route edges="gneE112 -gneE93 gneE97 gneE120"/>
    </vehicle>
    <vehicle id="-flow-random-route-6c1a5ee4-1782-4403-9572-3ef5cf42789b--7007441332108479525-4-0.2" type="actor-car-3037407356042874812" depart="240.00" departLane="0" departPos="49.86" departSpeed="max" arrivalLane="0" arrivalPos="63.23">
        <route edges="gneE97 gneE120 gneE121 -gneE119"/>
    </vehicle>
    <vehicle id="-flow-random-route-78e2dd85-de79-4b99-ab18-fd3e0027635d--7007441332108479525-14-0.2" type="actor-car-3037407356042874812" depart="240.00" departLane="0" departPos="48.02" departSpeed="max" arrivalLane="0" arrivalPos="115.38">
        <route edges="-gneE112 gneE111 gneE93 gneE117 gneE118"/>
    </vehicle>
    <vehicle id="-flow-random-route-814ee3a6-bf87-4269-b85e-0b7f5c96a5d7--7007441332108479525-5-0.2" type="actor-car-3037407356042874812" depart="240.00" departLane="0" departPos="70.25" departSpeed="max" arrivalLane="0" arrivalPos="68.58">
        <route edges="-gneE97 gneE93 -gneE112 -gneE110 -gneE119 -gneE118 -gneE117 -gneE112 -gneE110 -gneE121"/>
    </vehicle>
    <vehicle id="-flow-random-route-827dc5f2-304a-4476-97f6-db7528d2838e--7007441332108479525-27-0.2" type="actor-car-3037407356042874812" depart="240.00" departLane="0" departPos="81.43" departSpeed="max" arrivalLane="0" arrivalPos="172.86">
        <route edges="-gneE112 -gneE110 -gneE121 -gneE120"/>
    </vehicle>
    <vehicle id="-flow-random-route-9b6b61a7-cbd1-47fc-a2f8-2a5eb38c817a--7007441332108479525-0-0.2" type="actor-car-3037407356042874812" depart="240.00" departLane="0" departPos="12.64" departSpeed="max" arrivalLane="0" arrivalPos="9.81">
        <route edges="gneE111 gneE93 -gneE112 gneE111 gneE97 gneE120 gneE121 -gneE119 -gneE118 -gneE117"/>
    </vehicle>
    <vehicle id="-flow-random-route-a2007ef1-2168-4295-95f8-2b2762257f70--7007441332108479525-20-0.2" type="actor-car-3037407356042874812" depart="240.00" departLane="0" departPos="4.72" departSpeed="max" arrivalLane="0" arrivalPos="26.15">
        <route edges="gneE111 gneE93 -gneE112 -gneE110 -gneE119 -gneE118 -gneE117 -gneE93 -gneE111 gneE112"/>
    </vehicle>
    <vehicle id="-flow-random-route-a50b66b8-46bb-4dd7-a457-86ae64d6f082--7007441332108479525-11-0.2" type="actor-car-3037407356042874812" depart="240.00" departLane="0" departPos="91.95" departSpeed="max" arrivalLane="0" arrivalPos="21.63">
        <route edges="-gneE112 -gneE110 -gneE119 -gneE118 -gneE117 -gneE93 gneE97 gneE120 gneE121 gneE110"/>
    </vehicle>
    <vehicle id="-flow-random-route-a9cb9827-5638-4151-8a23-b136e7029cef--7007441332108479525-28-0.2" type="actor-car-3037407356042874812" depart="240.00" departLane="0" departPos="127.94" departSpeed="max" arrivalLane="0" arrivalPos="89.36">
        <route edges="-gneE120 -gneE97 gneE93 -gneE112 gneE111 gneE97 gneE120 gneE121 gneE110 gneE112"/>
    </vehicle>
    <vehicle id="-flow-random-route-aeacdb43-dd9e-4cbe-8870-b600b6989fee--7007441332108479525-12-0.2" type="actor-car-3037407356042874812" depart="240.00" departLane="0" departPos="14.37" departSpeed="max" arrivalLane="0" arrivalPos="44.56">
        <route edges="-gneE93 gneE97 gneE120 gneE121 gneE110"/>
    </vehicle>
    <vehicle id="-flow-random-route-b1d23e40-d964-48a5-adfb-921cf492703d--7007441332108479525-25-0.2" type="actor-car-3037407356042874812" depart="240.00" departLane="0" departPos="21.69" departSpeed="max" arrivalLane="0" arrivalPos="165.19">
        <route edges="gneE112 -gneE93 -gneE111 -gneE110 -gneE119 -gneE118 -gneE117 -gneE93 gneE97 gneE120"/>
    </vehicle>
    <vehicle id="-flow-random-route-b211c905-acca-4814-89af-b203a67fae87--7007441332108479525-22-0.2" type="actor-car-3037407356042874812" depart="240.00" departLane="0" departPos="60.05" departSpeed="max" arrivalLane="0" arrivalPos="68.78">
        <route edges="gneE93 gneE117 gneE118"/>
    </vehicle>
    <vehicle id="-flow-random-route-b4c4a570-c035-42a3-b03a-1ed91c9f2a63--7007441332108479525-10-0.2" type="actor-car-3037407356042874812" depart="240.00" departLane="0" departPos="88.89" departSpeed="max" arrivalLane="0" arrivalPos="54.95">