<?xml version="1.0" encoding="UTF-8"?>

<!-- generated on Sun Aug 16 11:47:21 2020 by Eclipse SUMO duarouter Version 1.6.0
<configuration xmlns:xsi="http://www.w3.org/2001/XMLSchema-instance" xsi:noNamespaceSchemaLocation="http://sumo.dlr.de/xsd/duarouterConfiguration.xsd">

    <input>
        <net-file value="dataset_public/mixed_loop/its_merge_a/map.net.xml"/>
        <route-files value="/tmp/tmp5bhaxqju/trips.trips.xml"/>
    </input>

    <output>
        <output-file value="dataset_public/mixed_loop/its_merge_a/traffic/30_patient_car.rou.xml"/>
        <alternatives-output value="dataset_public/mixed_loop/its_merge_a/traffic/30_patient_car.rou.alt.xml"/>
    </output>

    <processing>
        <unsorted-input value="true"/>
        <repair value="true"/>
    </processing>

    <report>
        <error-log value="/tmp/smarts/_duarouter_routing/traffic/30_patient_car.log"/>
        <no-step-log value="true"/>
    </report>

    <random_number>
        <seed value="42"/>
    </random_number>

</configuration>
-->

<routes xmlns:xsi="http://www.w3.org/2001/XMLSchema-instance" xsi:noNamespaceSchemaLocation="http://sumo.dlr.de/xsd/routes_file.xsd">
    <vType id="actor-car-5342890214638442648" minGap="2.50" speedFactor="normc(0.50,0.20,0.20,2.00)" vClass="passenger" impatience="0.50" lcCooperative="0.5" lcImpatience="0" jmDriveAfterYellowTime="1.0" accel="2.6" decel="4.5" sigma="0.5"/>
    <vehicle id="-flow-random-route-00adda88-f7e1-4d92-8a50-b44a613e6e96--6695250564283809788-27-0.0" type="actor-car-5342890214638442648" depart="0.00" departLane="0" departPos="155.95" departSpeed="max" arrivalLane="0" arrivalPos="36.11">
        <route edges="-gneE120 -gneE97 gneE93 -gneE112 gneE111 gneE93 gneE117 gneE118 gneE119 -gneE121"/>
    </vehicle>
    <vehicle id="-flow-random-route-1af1342b-3fac-4f8a-9b48-34f0bf5dbd94--6695250564283809788-9-0.0" type="actor-car-5342890214638442648" depart="0.00" departLane="0" departPos="70.25" departSpeed="max" arrivalLane="0" arrivalPos="68.58">
        <route edges="-gneE97 gneE93 -gneE112 -gneE110 -gneE119 -gneE118 -gneE117 -gneE112 -gneE110 -gneE121"/>
    </vehicle>
    <vehicle id="-flow-random-route-28e3e0ae-b060-4440-9862-1c99afbc6bda--6695250564283809788-23-0.0" type="actor-car-5342890214638442648" depart="0.00" departLane="0" departPos="117.29" departSpeed="max" arrivalLane="0" arrivalPos="64.12">
        <route edges="-gneE119 -gneE118 -gneE117 -gneE112 gneE111 gneE93 gneE117 gneE118 gneE119 gneE110"/>
    </vehicle>
    <vehicle id="-flow-random-route-2e83985f-cbd5-4932-9054-7b11ae8c2287--6695250564283809788-28-0.0" type="actor-car-5342890214638442648" depart="0.00" departLane="0" departPos="12.65" departSpeed="max" arrivalLane="0" arrivalPos="112.26">
        <route edges="-gneE111 -gneE110 -gneE119 -gneE118 -gneE117 -gneE93 -gneE111 gneE112 gneE117 gneE118"/>
    </vehicle>
    <vehicle id="-flow-random-route-34f76928-3066-464c-a098-21963632f524--6695250564283809788-17-0.0" type="actor-car-5342890214638442648" depart="0.00" departLane="0" departPos="88.89" departSpeed="max" arrivalLane="0" arrivalPos="54.95">
        <route edges="-gneE118 -gneE117 -gneE112 -gneE110"/>
    </vehicle>
    <vehicle id="-flow-random-route-38c4546e-92a7-4a0c-b08e-245269afd779--6695250564283809788-18-0.0" type="actor-car-5342890214638442648" depart="0.00" departLane="0" departPos="60.93" departSpeed="max" arrivalLane="0" arrivalPos="55.91">
        <route edges="-gneE117 -gneE93 gneE97 gneE120 gneE121 -gneE119 -gneE118 -gneE117 -gneE112 gneE111"/>
    </vehicle>
    <vehicle id="-flow-random-route-3b0d44a2-8605-4064-a1bb-7cdcb45371ef--6695250564283809788-21-0.0" type="actor-car-5342890214638442648" depart="0.00" departLane="0" departPos="4.72" departSpeed="max" arrivalLane="0" arrivalPos="26.15">
        <route edges="gneE111 gneE93 -gneE112 -gneE110 -gneE119 -gneE118 -gneE117 -gneE93 -gneE111 gneE112"/>
    </vehicle>
    <vehicle id="-flow-random-route-3be10cbb-b6f9-44e8-b77d-8cb19edadbb3--6695250564283809788-4-0.0" type="actor-car-5342890214638442648" depart="0.00" departLane="0" departPos="40.83" departSpeed="max" arrivalLane="0" arrivalPos="85.95">
        <route edges="gneE120 gneE121 gneE110 gneE112 -gneE93 -gneE111 -gneE110 -gneE121 -gneE120 -gneE97"/>
    </vehicle>
    <vehicle id="-flow-random-route-3e2c1fa3-7ce8-4e1d-9e53-ce36c2b232ba--6695250564283809788-11-0.0" type="actor-car-5342890214638442648" depart="0.00" departLane="0" departPos="49.86" departSpeed="max" arrivalLane="0" arrivalPos="63.23">
        <route edges="gneE97 gneE120 gneE121 -gneE119"/>
    </vehicle>
    <vehicle id="-flow-random-route-46b725ca-8de8-4236-889c-ca560feb9d84--6695250564283809788-14-0.0" type="actor-car-5342890214638442648" depart="0.00" departLane="0" departPos="25.00" departSpeed="max" arrivalLane="0" arrivalPos="8.56">
        <route edges="-gneE112 gneE111 gneE93 gneE117 gneE118 gneE119 gneE110 gneE111 gneE97 gneE120"/>
    </vehicle>
    <vehicle id="-flow-random-route-4af8f269-160f-4488-bb9a-cec208eddbce--6695250564283809788-20-0.0" type="actor-car-5342890214638442648" depart="0.00" departLane="0" departPos="91.95" departSpeed="max" arrivalLane="0" arrivalPos="21.63">
        <route edges="-gneE112 -gneE110 -gneE119 -gneE118 -gneE117 -gneE93 gneE97 gneE120 gneE121 gneE110"/>
    </vehicle>
    <vehicle id="-flow-random-route-554dd3db-85a5-4dbe-ab9f-0fddb1c0a619--6695250564283809788-25-0.0" type="actor-car-5342890214638442648" depart="0.00" departLane="0" departPos="12.64" departSpeed="max" arrivalLane="0" arrivalPos="9.81">
        <route edges="gneE111 gneE93 -gneE112 gneE111 gneE97 gneE120 gneE121 -gneE119 -gneE118 -gneE117"/>
    </vehicle>
    <vehicle id="-flow-random-route-554f8d63-7cec-4af4-8801-f35e2d931402--6695250564283809788-24-0.0" type="actor-car-5342890214638442648" depart="0.00" departLane="0" departPos="60.05" departSpeed="max" arrivalLane="0" arrivalPos="68.78">
        <route edges="gneE93 gneE117 gneE118"/>
    </vehicle>
    <vehicle id="-flow-random-route-56cd191c-6b83-416e-bfa9-c09bc1289f1c--6695250564283809788-12-0.0" type="actor-car-5342890214638442648" depart="0.00" departLane="0" departPos="26.34" departSpeed="max" arrivalLane="0" arrivalPos="153.13">
        <route edges="gneE117 gneE118"/>
    </vehicle>
    <vehicle id="-flow-random-route-693b1591-bae9-4731-a709-acb5c0fa81b0--6695250564283809788-13-0.0" type="actor-car-5342890214638442648" depart="0.00" departLane="0" departPos="48.02" departSpeed="max" arrivalLane="0" arrivalPos="115.38">
        <route edges="-gneE112 gneE111 gneE93 gneE117 gneE118"/>
    </vehicle>
    <vehicle id="-flow-random-route-6cf45168-4e3f-4aa7-b47a-c88a2b8e112a--6695250564283809788-0-0.0" type="actor-car-5342890214638442648" depart="0.00" departLane="0" departPos="20.90" departSpeed="max" arrivalLane="0" arrivalPos="62.42">
        <route edges="-gneE121 -gneE120 -gneE97 gneE93 gneE117 gneE118 gneE119 gneE110 gneE112 -gneE93"/>
    </vehicle>
    <vehicle id="-flow-random-route-8035ea21-da6d-42cc-a56b-d632c876db51--6695250564283809788-3-0.0" type="actor-car-5342890214638442648" depart="0.00" departLane="0" departPos="21.69" departSpeed="max" arrivalLane="0" arrivalPos="165.19">
        <route edges="gneE112 -gneE93 -gneE111 -gneE110 -gneE119 -gneE118 -gneE117 -gneE93 gneE97 gneE120"/>
    </vehicle>
    <vehicle id="-flow-random-route-8bc39d92-b4f5-47a0-b56a-427c836923e2--6695250564283809788-16-0.0" type="actor-car-5342890214638442648" depart="0.00" departLane="0" departPos="65.95" departSpeed="max" arrivalLane="0" arrivalPos="7.81">
        <route edges="gneE112 -gneE93 gneE97 gneE120"/>
    </vehicle>
    <vehicle id="-flow-random-route-8bd4e01f-7431-464d-b2b6-97cef06813ea--6695250564283809788-5-0.0" type="actor-car-5342890214638442648" depart="0.00" departLane="0" departPos="81.43" departSpeed="max" arrivalLane="0" arrivalPos="172.86">
        <route edges="-gneE112 -gneE110 -gneE121 -gneE120"/>
    </vehicle>
    <vehicle id="-flow-random-route-8faa37cc-bf3a-453f-9b63-bc53206d9ccb--6695250564283809788-15-0.0" type="actor-car-5342890214638442648" depart="0.00" departLane="0" departPos="25.85" departSpeed="max" arrivalLane="0" arrivalPos="80.54">
        <route edges="-gneE121 -gneE120 -gneE97 gneE93 -gneE112 gneE111 gneE93 -gneE112 gneE111 gneE97"/>
    </vehicle>
    <vehicle id="-flow-random-route-93d35731-060e-4973-8304-f9cb8e4d2b6b--6695250564283809788-7-0.0" type="actor-car-5342890214638442648" depart="0.00" departLane="0" departPos="32.55" departSpeed="max" arrivalLane="0" arrivalPos="144.82">
        <route edges="-gneE112 -gneE110 -gneE121 -gneE120"/>
    </vehicle>
    <vehicle id="-flow-random-route-9a010df4-109c-40b5-848d-fc5c8c73832c--6695250564283809788-26-0.0" type="actor-car-5342890214638442648" depart="0.00" departLane="0" departPos="93.59" departSpeed="max" arrivalLane="0" arrivalPos="17.89">
        <route edges="gneE121 -gneE119 -gneE118 -gneE117 -gneE93 -gneE111 gneE112 gneE117 gneE118 gneE119"/>
    </vehicle>
    <vehicle id="-flow-random-route-a9714537-cce4-4203-be2f-bf4d1560f92d--6695250564283809788-10-0.0" type="actor-car-5342890214638442648" depart="0.00" departLane="0" departPos="42.50" departSpeed="max" arrivalLane="0" arrivalPos="60.97">
        <route edges="-gneE119 -gneE118 -gneE117 -gneE93 -gneE111 gneE112 gneE117 gneE118 gneE119 -gneE121"/>
    </vehicle>
    <vehicle id="-flow-random-route-b0d05341-fcc8-4324-96d9-a505530749e5--6695250564283809788-8-0.0" type="actor-car-5342890214638442648" depart="0.00" departLane="0" departPos="44.95" departSpeed="max" arrivalLane="0" arrivalPos="55.98">
        <route edges="-gneE93 -gneE111 gneE112 -gneE93 -gneE111 gneE112 gneE117 gneE118 gneE119 -gneE121"/>
    </vehicle>
    <vehicle id="-flow-random-route-b28a6c1e-8d29-4401-b242-f68fc259b97a--6695250564283809788-29-0.0" type="actor-car-5342890214638442648" depart="0.00" departLane="0" departPos="11.64" departSpeed="max" arrivalLane="0" arrivalPos="45.61">
        <route edges="gneE93 gneE117 gneE118 gneE119 gneE110 gneE112 gneE117 gneE118 gneE119 -gneE121"/>
    </vehicle>
    <vehicle id="-flow-random-route-c529a2f8-343e-44e9-95b2-ccf824303e0a--6695250564283809788-6-0.0" type="actor-car-5342890214638442648" depart="0.00" departLane="0" departPos="127.94" departSpeed="max" arrivalLane="0" arrivalPos="89.36">
        <route edges="-gneE120 -gneE97 gneE93 -gneE112 gneE111 gneE97 gneE120 gneE121 gneE110 gneE112"/>
    </vehicle>
    <vehicle id="-flow-random-route-c918b2ee-ece4-43b3-a447-71c961a19a0a--6695250564283809788-22-0.0" type="actor-car-5342890214638442648" depart="0.00" departLane="0" departPos="14.37" departSpeed="max" arrivalLane="0" arrivalPos="44.56">
        <route edges="-gneE93 gneE97 gneE120 gneE121 gneE110"/>
    </vehicle>
    <vehicle id="-flow-random-route-dbd658a9-ff2c-48b8-851a-452bd7b3c292--6695250564283809788-2-0.0" type="actor-car-5342890214638442648" depart="0.00" departLane="0" departPos="70.55" departSpeed="max" arrivalLane="0" arrivalPos="15.44">
        <route edges="-gneE119 -gneE118 -gneE117 -gneE112 -gneE110 -gneE121 -gneE120 -gneE97 gneE93 gneE117"/>
    </vehicle>
    <vehicle id="-flow-random-route-e747b7b5-18d3-49ae-943d-fcb2efc41349--6695250564283809788-1-0.0" type="actor-car-5342890214638442648" depart="0.00" departLane="0" departPos="31.02" departSpeed="max" arrivalLane="0" arrivalPos="6.52">
        <route edges="-gneE120 -gneE97 -gneE111 -gneE110 -gneE119 -gneE118 -gneE117 -gneE93 gneE97 gneE120"/>
    </vehicle>
    <vehicle id="-flow-random-route-f2a717c2-bad2-4627-8832-00d8a23fe510--6695250564283809788-19-0.0" type="actor-car-5342890214638442648" depart="0.00" departLane="0" departPos="22.04" departSpeed="max" arrivalLane="0" arrivalPos="38.70">
        <route edges="gneE117 gneE118 gneE119 -gneE121 -gneE120 -gneE97 gneE93 -gneE112 -gneE110 -gneE119"/>
    </vehicle>
    <vehicle id="-flow-random-route-00adda88-f7e1-4d92-8a50-b44a613e6e96--6695250564283809788-27-0.1" type="actor-car-5342890214638442648" depart="120.00" departLane="0" departPos="155.95" departSpeed="max" arrivalLane="0" arrivalPos="36.11">
        <route edges="-gneE120 -gneE97 gneE93 -gneE112 gneE111 gneE93 gneE117 gneE118 gneE119 -gneE121"/>
    </vehicle>
    <vehicle id="-flow-random-route-1af1342b-3fac-4f8a-9b48-34f0bf5dbd94--6695250564283809788-9-0.1" type="actor-car-5342890214638442648" depart="120.00" departLane="0" departPos="70.25" departSpeed="max" arrivalLane="0" arrivalPos="68.58">
        <route edges="-gneE97 gneE93 -gneE112 -gneE110 -gneE119 -gneE118 -gneE117 -gneE112 -gneE110 -gneE121"/>
    </vehicle>
    <vehicle id="-flow-random-route-28e3e0ae-b060-4440-9862-1c99afbc6bda--6695250564283809788-23-0.1" type="actor-car-5342890214638442648" depart="120.00" departLane="0" departPos="117.29" departSpeed="max" arrivalLane="0" arrivalPos="64.12">
        <route edges="-gneE119 -gneE118 -gneE117 -gneE112 gneE111 gneE93 gneE117 gneE118 gneE119 gneE110"/>
    </vehicle>
    <vehicle id="-flow-random-route-2e83985f-cbd5-4932-9054-7b11ae8c2287--6695250564283809788-28-0.1" type="actor-car-5342890214638442648" depart="120.00" departLane="0" departPos="12.65" departSpeed="max" arrivalLane="0" arrivalPos="112.26">
        <route edges="-gneE111 -gneE110 -gneE119 -gneE118 -gneE117 -gneE93 -gneE111 gneE112 gneE117 gneE118"/>
    </vehicle>
    <vehicle id="-flow-random-route-34f76928-3066-464c-a098-21963632f524--6695250564283809788-17-0.1" type="actor-car-5342890214638442648" depart="120.00" departLane="0" departPos="88.89" departSpeed="max" arrivalLane="0" arrivalPos="54.95">
        <route edges="-gneE118 -gneE117 -gneE112 -gneE110"/>
    </vehicle>
    <vehicle id="-flow-random-route-38c4546e-92a7-4a0c-b08e-245269afd779--6695250564283809788-18-0.1" type="actor-car-5342890214638442648" depart="120.00" departLane="0" departPos="60.93" departSpeed="max" arrivalLane="0" arrivalPos="55.91">
        <route edges="-gneE117 -gneE93 gneE97 gneE120 gneE121 -gneE119 -gneE118 -gneE117 -gneE112 gneE111"/>
    </vehicle>
    <vehicle id="-flow-random-route-3b0d44a2-8605-4064-a1bb-7cdcb45371ef--6695250564283809788-21-0.1" type="actor-car-5342890214638442648" depart="120.00" departLane="0" departPos="4.72" departSpeed="max" arrivalLane="0" arrivalPos="26.15">
        <route edges="gneE111 gneE93 -gneE112 -gneE110 -gneE119 -gneE118 -gneE117 -gneE93 -gneE111 gneE112"/>
    </vehicle>
    <vehicle id="-flow-random-route-3be10cbb-b6f9-44e8-b77d-8cb19edadbb3--6695250564283809788-4-0.1" type="actor-car-5342890214638442648" depart="120.00" departLane="0" departPos="40.83" departSpeed="max" arrivalLane="0" arrivalPos="85.95">
        <route edges="gneE120 gneE121 gneE110 gneE112 -gneE93 -gneE111 -gneE110 -gneE121 -gneE120 -gneE97"/>
    </vehicle>
    <vehicle id="-flow-random-route-3e2c1fa3-7ce8-4e1d-9e53-ce36c2b232ba--6695250564283809788-11-0.1" type="actor-car-5342890214638442648" depart="120.00" departLane="0" departPos="49.86" departSpeed="max" arrivalLane="0" arrivalPos="63.23">
        <route edges="gneE97 gneE120 gneE121 -gneE119"/>
    </vehicle>
    <vehicle id="-flow-random-route-46b725ca-8de8-4236-889c-ca560feb9d84--6695250564283809788-14-0.1" type="actor-car-5342890214638442648" depart="120.00" departLane="0" departPos="25.00" departSpeed="max" arrivalLane="0" arrivalPos="8.56">
        <route edges="-gneE112 gneE111 gneE93 gneE117 gneE118 gneE119 gneE110 gneE111 gneE97 gneE120"/>
    </vehicle>
    <vehicle id="-flow-random-route-4af8f269-160f-4488-bb9a-cec208eddbce--6695250564283809788-20-0.1" type="actor-car-5342890214638442648" depart="120.00" departLane="0" departPos="91.95" departSpeed="max" arrivalLane="0" arrivalPos="21.63">
        <route edges="-gneE112 -gneE110 -gneE119 -gneE118 -gneE117 -gneE93 gneE97 gneE120 gneE121 gneE110"/>
    </vehicle>
    <vehicle id="-flow-random-route-554dd3db-85a5-4dbe-ab9f-0fddb1c0a619--6695250564283809788-25-0.1" type="actor-car-5342890214638442648" depart="120.00" departLane="0" departPos="12.64" departSpeed="max" arrivalLane="0" arrivalPos="9.81">
        <route edges="gneE111 gneE93 -gneE112 gneE111 gneE97 gneE120 gneE121 -gneE119 -gneE118 -gneE117"/>
    </vehicle>
    <vehicle id="-flow-random-route-554f8d63-7cec-4af4-8801-f35e2d931402--6695250564283809788-24-0.1" type="actor-car-5342890214638442648" depart="120.00" departLane="0" departPos="60.05" departSpeed="max" arrivalLane="0" arrivalPos="68.78">
        <route edges="gneE93 gneE117 gneE118"/>
    </vehicle>
    <vehicle id="-flow-random-route-56cd191c-6b83-416e-bfa9-c09bc1289f1c--6695250564283809788-12-0.1" type="actor-car-5342890214638442648" depart="120.00" departLane="0" departPos="26.34" departSpeed="max" arrivalLane="0" arrivalPos="153.13">
        <route edges="gneE117 gneE118"/>
    </vehicle>
    <vehicle id="-flow-random-route-693b1591-bae9-4731-a709-acb5c0fa81b0--6695250564283809788-13-0.1" type="actor-car-5342890214638442648" depart="120.00" departLane="0" departPos="48.02" departSpeed="max" arrivalLane="0" arrivalPos="115.38">
        <route edges="-gneE112 gneE111 gneE93 gneE117 gneE118"/>
    </vehicle>
    <vehicle id="-flow-random-route-6cf45168-4e3f-4aa7-b47a-c88a2b8e112a--6695250564283809788-0-0.1" type="actor-car-5342890214638442648" depart="120.00" departLane="0" departPos="20.90" departSpeed="max" arrivalLane="0" arrivalPos="62.42">
        <route edges="-gneE121 -gneE120 -gneE97 gneE93 gneE117 gneE118 gneE119 gneE110 gneE112 -gneE93"/>
    </vehicle>
    <vehicle id="-flow-random-route-8035ea21-da6d-42cc-a56b-d632c876db51--6695250564283809788-3-0.1" type="actor-car-5342890214638442648" depart="120.00" departLane="0" departPos="21.69" departSpeed="max" arrivalLane="0" arrivalPos="165.19">
        <route edges="gneE112 -gneE93 -gneE111 -gneE110 -gneE119 -gneE118 -gneE117 -gneE93 gneE97 gneE120"/>
    </vehicle>
    <vehicle id="-flow-random-route-8bc39d92-b4f5-47a0-b56a-427c836923e2--6695250564283809788-16-0.1" type="actor-car-5342890214638442648" depart="120.00" departLane="0" departPos="65.95" departSpeed="max" arrivalLane="0" arrivalPos="7.81">
        <route edges="gneE112 -gneE93 gneE97 gneE120"/>
    </vehicle>
    <vehicle id="-flow-random-route-8bd4e01f-7431-464d-b2b6-97cef06813ea--6695250564283809788-5-0.1" type="actor-car-5342890214638442648" depart="120.00" departLane="0" departPos="81.43" departSpeed="max" arrivalLane="0" arrivalPos="172.86">
        <route edges="-gneE112 -gneE110 -gneE121 -gneE120"/>
    </vehicle>
    <vehicle id="-flow-random-route-8faa37cc-bf3a-453f-9b63-bc53206d9ccb--6695250564283809788-15-0.1" type="actor-car-5342890214638442648" depart="120.00" departLane="0" departPos="25.85" departSpeed="max" arrivalLane="0" arrivalPos="80.54">
        <route edges="-gneE121 -gneE120 -gneE97 gneE93 -gneE112 gneE111 gneE93 -gneE112 gneE111 gneE97"/>
    </vehicle>
    <vehicle id="-flow-random-route-93d35731-060e-4973-8304-f9cb8e4d2b6b--6695250564283809788-7-0.1" type="actor-car-5342890214638442648" depart="120.00" departLane="0" departPos="32.55" departSpeed="max" arrivalLane="0" arrivalPos="144.82">
        <route edges="-gneE112 -gneE110 -gneE121 -gneE120"/>
    </vehicle>
    <vehicle id="-flow-random-route-9a010df4-109c-40b5-848d-fc5c8c73832c--6695250564283809788-26-0.1" type="actor-car-5342890214638442648" depart="120.00" departLane="0" departPos="93.59" departSpeed="max" arrivalLane="0" arrivalPos="17.89">
        <route edges="gneE121 -gneE119 -gneE118 -gneE117 -gneE93 -gneE111 gneE112 gneE117 gneE118 gneE119"/>
    </vehicle>
    <vehicle id="-flow-random-route-a9714537-cce4-4203-be2f-bf4d1560f92d--6695250564283809788-10-0.1" type="actor-car-5342890214638442648" depart="120.00" departLane="0" departPos="42.50" departSpeed="max" arrivalLane="0" arrivalPos="60.97">
        <route edges="-gneE119 -gneE118 -gneE117 -gneE93 -gneE111 gneE112 gneE117 gneE118 gneE119 -gneE121"/>
    </vehicle>
    <vehicle id="-flow-random-route-b0d05341-fcc8-4324-96d9-a505530749e5--6695250564283809788-8-0.1" type="actor-car-5342890214638442648" depart="120.00" departLane="0" departPos="44.95" departSpeed="max" arrivalLane="0" arrivalPos="55.98">
        <route edges="-gneE93 -gneE111 gneE112 -gneE93 -gneE111 gneE112 gneE117 gneE118 gneE119 -gneE121"/>
    </vehicle>
    <vehicle id="-flow-random-route-b28a6c1e-8d29-4401-b242-f68fc259b97a--6695250564283809788-29-0.1" type="actor-car-5342890214638442648" depart="120.00" departLane="0" departPos="11.64" departSpeed="max" arrivalLane="0" arrivalPos="45.61">
        <route edges="gneE93 gneE117 gneE118 gneE119 gneE110 gneE112 gneE117 gneE118 gneE119 -gneE121"/>
    </vehicle>
    <vehicle id="-flow-random-route-c529a2f8-343e-44e9-95b2-ccf824303e0a--6695250564283809788-6-0.1" type="actor-car-5342890214638442648" depart="120.00" departLane="0" departPos="127.94" departSpeed="max" arrivalLane="0" arrivalPos="89.36">
        <route edges="-gneE120 -gneE97 gneE93 -gneE112 gneE111 gneE97 gneE120 gneE121 gneE110 gneE112"/>
    </vehicle>
    <vehicle id="-flow-random-route-c918b2ee-ece4-43b3-a447-71c961a19a0a--6695250564283809788-22-0.1" type="actor-car-5342890214638442648" depart="120.00" departLane="0" departPos="14.37" departSpeed="max" arrivalLane="0" arrivalPos="44.56">
        <route edges="-gneE93 gneE97 gneE120 gneE121 gneE110"/>
    </vehicle>
    <vehicle id="-flow-random-route-dbd658a9-ff2c-48b8-851a-452bd7b3c292--6695250564283809788-2-0.1" type="actor-car-5342890214638442648" depart="120.00" departLane="0" departPos="70.55" departSpeed="max" arrivalLane="0" arrivalPos="15.44">
        <route edges="-gneE119 -gneE118 -gneE117 -gneE112 -gneE110 -gneE121 -gneE120 -gneE97 gneE93 gneE117"/>
    </vehicle>
    <vehicle id="-flow-random-route-e747b7b5-18d3-49ae-943d-fcb2efc41349--6695250564283809788-1-0.1" type="actor-car-5342890214638442648" depart="120.00" departLane="0" departPos="31.02" departSpeed="max" arrivalLane="0" arrivalPos="6.52">
        <route edges="-gneE120 -gneE97 -gneE111 -gneE110 -gneE119 -gneE118 -gneE117 -gneE93 gneE97 gneE120"/>
    </vehicle>
    <vehicle id="-flow-random-route-f2a717c2-bad2-4627-8832-00d8a23fe510--6695250564283809788-19-0.1" type="actor-car-5342890214638442648" depart="120.00" departLane="0" departPos="22.04" departSpeed="max" arrivalLane="0" arrivalPos="38.70">
        <route edges="gneE117 gneE118 gneE119 -gneE121 -gneE120 -gneE97 gneE93 -gneE112 -gneE110 -gneE119"/>
    </vehicle>
    <vehicle id="-flow-random-route-00adda88-f7e1-4d92-8a50-b44a613e6e96--6695250564283809788-27-0.2" type="actor-car-5342890214638442648" depart="240.00" departLane="0" departPos="155.95" departSpeed="max" arrivalLane="0" arrivalPos="36.11">
        <route edges="-gneE120 -gneE97 gneE93 -gneE112 gneE111 gneE93 gneE117 gneE118 gneE119 -gneE121"/>
    </vehicle>
    <vehicle id="-flow-random-route-1af1342b-3fac-4f8a-9b48-34f0bf5dbd94--6695250564283809788-9-0.2" type="actor-car-5342890214638442648" depart="240.00" departLane="0" departPos="70.25" departSpeed="max" arrivalLane="0" arrivalPos="68.58">
        <route edges="-gneE97 gneE93 -gneE112 -gneE110 -gneE119 -gneE118 -gneE117 -gneE112 -gneE110 -gneE121"/>
    </vehicle>
    <vehicle id="-flow-random-route-28e3e0ae-b060-4440-9862-1c99afbc6bda--6695250564283809788-23-0.2" type="actor-car-5342890214638442648" depart="240.00" departLane="0" departPos="117.29" departSpeed="max" arrivalLane="0" arrivalPos="64.12">
        <route edges="-gneE119 -gneE118 -gneE117 -gneE112 gneE111 gneE93 gneE117 gneE118 gneE119 gneE110"/>
    </vehicle>
    <vehicle id="-flow-random-route-2e83985f-cbd5-4932-9054-7b11ae8c2287--6695250564283809788-28-0.2" type="actor-car-5342890214638442648" depart="240.00" departLane="0" departPos="12.65" departSpeed="max" arrivalLane="0" arrivalPos="112.26">
        <route edges="-gneE111 -gneE110 -gneE119 -gneE118 -gneE117 -gneE93 -gneE111 gneE112 gneE117 gneE118"/>
    </vehicle>
    <vehicle id="-flow-random-route-34f76928-3066-464c-a098-21963632f524--6695250564283809788-17-0.2" type="actor-car-5342890214638442648" depart="240.00" departLane="0" departPos="88.89" departSpeed="max" arrivalLane="0" arrivalPos="54.95">
        <route edges="-gneE118 -gneE117 -gneE112 -gneE110"/>
    </vehicle>
    <vehicle id="-flow-random-route-38c4546e-92a7-4a0c-b08e-245269afd779--6695250564283809788-18-0.2" type="actor-car-5342890214638442648" depart="240.00" departLane="0" departPos="60.93" departSpeed="max" arrivalLane="0" arrivalPos="55.91">
        <route edges="-gneE117 -gneE93 gneE97 gneE120 gneE121 -gneE119 -gneE118 -gneE117 -gneE112 gneE111"/>
    </vehicle>
    <vehicle id="-flow-random-route-3b0d44a2-8605-4064-a1bb-7cdcb45371ef--6695250564283809788-21-0.2" type="actor-car-5342890214638442648" depart="240.00" departLane="0" departPos="4.72" departSpeed="max" arrivalLane="0" arrivalPos="26.15">
        <route edges="gneE111 gneE93 -gneE112 -gneE110 -gneE119 -gneE118 -gneE117 -gneE93 -gneE111 gneE112"/>
    </vehicle>
    <vehicle id="-flow-random-route-3be10cbb-b6f9-44e8-b77d-8cb19edadbb3--6695250564283809788-4-0.2" type="actor-car-5342890214638442648" depart="240.00" departLane="0" departPos="40.83" departSpeed="max" arrivalLane="0" arrivalPos="85.95">
        <route edges="gneE120 gneE121 gneE110 gneE112 -gneE93 -gneE111 -gneE110 -gneE121 -gneE120 -gneE97"/>
    </vehicle>
    <vehicle id="-flow-random-route-3e2c1fa3-7ce8-4e1d-9e53-ce36c2b232ba--6695250564283809788-11-0.2" type="actor-car-5342890214638442648" depart="240.00" departLane="0" departPos="49.86" departSpeed="max" arrivalLane="0" arrivalPos="63.23">
        <route edges="gneE97 gneE120 gneE121 -gneE119"/>
    </vehicle>
    <vehicle id="-flow-random-route-46b725ca-8de8-4236-889c-ca560feb9d84--6695250564283809788-14-0.2" type="actor-car-5342890214638442648" depart="240.00" departLane="0" departPos="25.00" departSpeed="max" arrivalLane="0" arrivalPos="8.56">
        <route edges="-gneE112 gneE111 gneE93 gneE117 gneE118 gneE119 gneE110 gneE111 gneE97 gneE120"/>
    </vehicle>
    <vehicle id="-flow-random-route-4af8f269-160f-4488-bb9a-cec208eddbce--6695250564283809788-20-0.2" type="actor-car-5342890214638442648" depart="240.00" departLane="0" departPos="91.95" departSpeed="max" arrivalLane="0" arrivalPos="21.63">
        <route edges="-gneE112 -gneE110 -gneE119 -gneE118 -gneE117 -gneE93 gneE97 gneE120 gneE121 gneE110"/>
    </vehicle>
    <vehicle id="-flow-random-route-554dd3db-85a5-4dbe-ab9f-0fddb1c0a619--6695250564283809788-25-0.2" type="actor-car-5342890214638442648" depart="240.00" departLane="0" departPos="12.64" departSpeed="max" arrivalLane="0" arrivalPos="9.81">
        <route edges="gneE111 gneE93 -gneE112 gneE111 gneE97 gneE120 gneE121 -gneE119 -gneE118 -gneE117"/>
    </vehicle>
    <vehicle id="-flow-random-route-554f8d63-7cec-4af4-8801-f35e2d931402--6695250564283809788-24-0.2" type="actor-car-5342890214638442648" depart="240.00" departLane="0" departPos="60.05" departSpeed="max" arrivalLane="0" arrivalPos="68.78">
        <route edges="gneE93 gneE117 gneE118"/>
    </vehicle>
    <vehicle id="-flow-random-route-56cd191c-6b83-416e-bfa9-c09bc1289f1c--6695250564283809788-12-0.2" type="actor-car-5342890214638442648" depart="240.00" departLane="0" departPos="26.34" departSpeed="max" arrivalLane="0" arrivalPos="153.13">
        <route edges="gneE117 gneE118"/>
    </vehicle>
    <vehicle id="-flow-random-route-693b1591-bae9-4731-a709-acb5c0fa81b0--6695250564283809788-13-0.2" type="actor-car-5342890214638442648" depart="240.00" departLane="0" departPos="48.02" departSpeed="max" arrivalLane="0" arrivalPos="115.38">
        <route edges="-gneE112 gneE111 gneE93 gneE117 gneE118"/>
    </vehicle>
    <vehicle id="-flow-random-route-6cf45168-4e3f-4aa7-b47a-c88a2b8e112a--6695250564283809788-0-0.2" type="actor-car-5342890214638442648" depart="240.00" departLane="0" departPos="20.90" departSpeed="max" arrivalLane="0" arrivalPos="62.42">
        <route edges="-gneE121 -gneE120 -gneE97 gneE93 gneE117 gneE118 gneE119 gneE110 gneE112 -gneE93"/>
    </vehicle>
    <vehicle id="-flow-random-route-8035ea21-da6d-42cc-a56b-d632c876db51--6695250564283809788-3-0.2" type="actor-car-5342890214638442648" depart="240.00" departLane="0" departPos="21.69" departSpeed="max" arrivalLane="0" arrivalPos="165.19">
        <route edges="gneE112 -gneE93 -gneE111 -gneE110 -gneE119 -gneE118 -gneE117 -gneE93 gneE97 gneE120"/>
    </vehicle>
    <vehicle id="-flow-random-route-8bc39d92-b4f5-47a0-b56a-427c836923e2--6695250564283809788-16-0.2" type="actor-car-5342890214638442648" depart="240.00" departLane="0" departPos="65.95" departSpeed="max" arrivalLane="0" arrivalPos="7.81">
        <route edges="gneE112 -gneE93 gneE97 gneE120"/>
    </vehicle>
    <vehicle id="-flow-random-route-8bd4e01f-7431-464d-b2b6-97cef06813ea--6695250564283809788-5-0.2" type="actor-car-5342890214638442648" depart="240.00" departLane="0" departPos="81.43" departSpeed="max" arrivalLane="0" arrivalPos="172.86">
        <route edges="-gneE112 -gneE110 -gneE121 -gneE120"/>
    </vehicle>
    <vehicle id="-flow-random-route-8faa37cc-bf3a-453f-9b63-bc53206d9ccb--6695250564283809788-15-0.2" type="actor-car-5342890214638442648" depart="240.00" departLane="0" departPos="25.85" departSpeed="max" arrivalLane="0" arrivalPos="80.54">
        <route edges="-gneE121 -gneE120 -gneE97 gneE93 -gneE112 gneE111 gneE93 -gneE112 gneE111 gneE97"/>
    </vehicle>
    <vehicle id="-flow-random-route-93d35731-060e-4973-8304-f9cb8e4d2b6b--6695250564283809788-7-0.2" type="actor-car-5342890214638442648" depart="240.00" departLane="0" departPos="32.55" departSpeed="max" arrivalLane="0" arrivalPos="144.82">
        <route edges="-gneE112 -gneE110 -gneE121 -gneE120"/>
    </vehicle>
    <vehicle id="-flow-random-route-9a010df4-109c-40b5-848d-fc5c8c73832c--6695250564283809788-26-0.2" type="actor-car-5342890214638442648" depart="240.00" departLane="0" departPos="93.59" departSpeed="max" arrivalLane="0" arrivalPos="17.89">
        <route edges="gneE121 -gneE119 -gneE118 -gneE117 -gneE93 -gneE111 gneE112 gneE117 gneE118 gneE119"/>
    </vehicle>