<?xml version="1.0" encoding="UTF-8"?>

<!-- generated on Sun Aug 16 11:47:18 2020 by Eclipse SUMO duarouter Version 1.6.0
<configuration xmlns:xsi="http://www.w3.org/2001/XMLSchema-instance" xsi:noNamespaceSchemaLocation="http://sumo.dlr.de/xsd/duarouterConfiguration.xsd">

    <input>
        <net-file value="dataset_public/simple_loop/simpleloop_a/map.net.xml"/>
        <route-files value="/tmp/tmptodr1kr5/trips.trips.xml"/>
    </input>

    <output>
        <output-file value="dataset_public/simple_loop/simpleloop_a/traffic/30_patient_car.rou.xml"/>
        <alternatives-output value="dataset_public/simple_loop/simpleloop_a/traffic/30_patient_car.rou.alt.xml"/>
    </output>

    <processing>
        <unsorted-input value="true"/>
        <repair value="true"/>
    </processing>

    <report>
        <error-log value="/tmp/smarts/_duarouter_routing/traffic/30_patient_car.log"/>
        <no-step-log value="true"/>
    </report>

    <random_number>
        <seed value="42"/>
    </random_number>

</configuration>
-->

<routes xmlns:xsi="http://www.w3.org/2001/XMLSchema-instance" xsi:noNamespaceSchemaLocation="http://sumo.dlr.de/xsd/routes_file.xsd">
    <vType id="actor-car-6834525769950294759" minGap="2.50" speedFactor="normc(0.50,0.20,0.20,2.00)" vClass="passenger" impatience="0.50" lcCooperative="0.5" lcImpatience="0" jmDriveAfterYellowTime="1.0" accel="2.6" decel="4.5" sigma="0.5"/>
    <vehicle id="-flow-random-route-0b6f9bbd-e9e7-4a59-8e24-be774ba00fe8--6139259763444990309-5-0.0" type="actor-car-6834525769950294759" depart="0.00" departLane="2" departPos="195.29" departSpeed="max" arrivalLane="0" arrivalPos="85.27">
        <route edges="edge1 edge0"/>
    </vehicle>
    <vehicle id="-flow-random-route-137115e4-9519-4c34-a724-ce52e86b6eb5--6139259763444990309-8-0.0" type="actor-car-6834525769950294759" depart="0.00" departLane="1" departPos="59.61" departSpeed="max" arrivalLane="2" arrivalPos="62.24">
        <route edges="edge0 edge1"/>
    </vehicle>
    <vehicle id="-flow-random-route-15e92bc9-d31f-40b1-851e-2db798aa80ac--6139259763444990309-12-0.0" type="actor-car-6834525769950294759" depart="0.00" departLane="1" departPos="149.23" departSpeed="max" arrivalLane="0" arrivalPos="19.06">
        <route edges="edge1 edge0"/>
    </vehicle>
    <vehicle id="-flow-random-route-1662d969-4621-42b7-aed5-cc2de256e1f3--6139259763444990309-6-0.0" type="actor-car-6834525769950294759" depart="0.00" departLane="2" departPos="65.15" departSpeed="max" arrivalLane="2" arrivalPos="446.25">
        <route edges="edge0 edge1"/>
    </vehicle>
    <vehicle id="-flow-random-route-19390d05-9c76-4fa7-a111-eac2c80ae427--6139259763444990309-15-0.0" type="actor-car-6834525769950294759" depart="0.00" departLane="2" departPos="64.58" departSpeed="max" arrivalLane="2" arrivalPos="98.36">
        <route edges="edge0 edge1"/>
    </vehicle>
    <vehicle id="-flow-random-route-1b8dc3da-2708-480c-b277-e27b61765b59--6139259763444990309-10-0.0" type="actor-car-6834525769950294759" depart="0.00" departLane="2" departPos="80.08" departSpeed="max" arrivalLane="2" arrivalPos="34.91">
        <route edges="edge0 edge1"/>
    </vehicle>
    <vehicle id="-flow-random-route-299e833d-712f-4815-aa99-bf86378e4451--6139259763444990309-11-0.0" type="actor-car-6834525769950294759" depart="0.00" departLane="0" departPos="22.60" departSpeed="max" arrivalLane="1" arrivalPos="52.26">
        <route edges="edge1 edge0"/>
    </vehicle>
    <vehicle id="-flow-random-route-37816a18-1735-48b3-b75a-9ea05bf0276b--6139259763444990309-1-0.0" type="actor-car-6834525769950294759" depart="0.00" departLane="0" departPos="73.93" departSpeed="max" arrivalLane="0" arrivalPos="80.50">
        <route edges="edge0 edge1"/>
    </vehicle>
    <vehicle id="-flow-random-route-39a431a1-5c7c-45fc-ba28-b7ea8c777417--6139259763444990309-24-0.0" type="actor-car-6834525769950294759" depart="0.00" departLane="1" departPos="34.30" departSpeed="max" arrivalLane="0" arrivalPos="103.16">
        <route edges="edge0 edge1"/>
    </vehicle>
    <vehicle id="-flow-random-route-3eff20a5-5558-432b-881a-4087745502d6--6139259763444990309-29-0.0" type="actor-car-6834525769950294759" depart="0.00" departLane="1" departPos="117.08" departSpeed="max" arrivalLane="0" arrivalPos="75.07">
        <route edges="edge1 edge0"/>
    </vehicle>
    <vehicle id="-flow-random-route-41ce27fb-9c7d-4b0f-9cc7-999c5add002d--6139259763444990309-23-0.0" type="actor-car-6834525769950294759" depart="0.00" departLane="1" departPos="178.30" departSpeed="max" arrivalLane="0" arrivalPos="76.86">
        <route edges="edge1 edge0"/>
    </vehicle>
    <vehicle id="-flow-random-route-5bdda7cf-f3dc-4fd6-879f-b3806a9cc4c4--6139259763444990309-22-0.0" type="actor-car-6834525769950294759" depart="0.00" departLane="2" departPos="452.58" departSpeed="max" arrivalLane="2" arrivalPos="58.73">
        <route edges="edge1 edge0"/>
    </vehicle>
    <vehicle id="-flow-random-route-5e926fb8-f4c3-40eb-8031-909bb4e20c68--6139259763444990309-19-0.0" type="actor-car-6834525769950294759" depart="0.00" departLane="0" departPos="323.34" departSpeed="max" arrivalLane="1" arrivalPos="84.24">
        <route edges="edge1 edge0"/>
    </vehicle>
    <vehicle id="-flow-random-route-64fe0043-d999-4626-938a-7cb69a562ff7--6139259763444990309-3-0.0" type="actor-car-6834525769950294759" depart="0.00" departLane="2" departPos="85.17" departSpeed="max" arrivalLane="2" arrivalPos="122.93">
        <route edges="edge0 edge1"/>
    </vehicle>
    <vehicle id="-flow-random-route-67eae232-c3eb-448b-a9d9-83477cb9a82f--6139259763444990309-17-0.0" type="actor-car-6834525769950294759" depart="0.00" departLane="1" departPos="18.71" departSpeed="max" arrivalLane="2" arrivalPos="253.27">
        <route edges="edge0 edge1"/>
    </vehicle>
    <vehicle id="-flow-random-route-802dc959-4827-412c-8a35-e3bc5e918f9e--6139259763444990309-0-0.0" type="actor-car-6834525769950294759" depart="0.00" departLane="1" departPos="216.02" departSpeed="max" arrivalLane="2" arrivalPos="18.27">
        <route edges="edge1 edge0"/>
    </vehicle>
    <vehicle id="-flow-random-route-9079e62a-549a-417d-ada1-4e82222f4bbb--6139259763444990309-7-0.0" type="actor-car-6834525769950294759" depart="0.00" departLane="1" departPos="49.98" departSpeed="max" arrivalLane="1" arrivalPos="8.27">
        <route edges="edge1 edge0"/>
    </vehicle>
    <vehicle id="-flow-random-route-9184067c-9621-4143-8f3b-889263e1633b--6139259763444990309-18-0.0" type="actor-car-6834525769950294759" depart="0.00" departLane="2" departPos="102.99" departSpeed="max" arrivalLane="1" arrivalPos="17.41">
        <route edges="edge1 edge0"/>
    </vehicle>
    <vehicle id="-flow-random-route-944f7dc5-b47f-4995-9379-d46ca7af2fa6--6139259763444990309-26-0.0" type="actor-car-6834525769950294759" depart="0.00" departLane="0" departPos="49.52" departSpeed="max" arrivalLane="2" arrivalPos="29.81">
        <route edges="edge0 edge1"/>
    </vehicle>
    <vehicle id="-flow-random-route-95c3e95e-ccc8-4e6f-8102-202f9d14e92b--6139259763444990309-9-0.0" type="actor-car-6834525769950294759" depart="0.00" departLane="0" departPos="23.82" departSpeed="max" arrivalLane="0" arrivalPos="427.60">
        <route edges="edge0 edge1"/>
    </vehicle>
    <vehicle id="-flow-random-route-a7287d99-9ee9-4ef4-be5d-27d6505e78c1--6139259763444990309-4-0.0" type="actor-car-6834525769950294759" depart="0.00" departLane="2" departPos="11.31" departSpeed="max" arrivalLane="2" arrivalPos="281.75">
        <route edges="edge0 edge1"/>
    </vehicle>
    <vehicle id="-flow-random-route-a88fd0eb-5d3c-4cc5-a1c6-4e4188c94a41--6139259763444990309-20-0.0" type="actor-car-6834525769950294759" depart="0.00" departLane="2" departPos="479.09" departSpeed="max" arrivalLane="0" arrivalPos="63.38">
        <route edges="edge1 edge0"/>
    </vehicle>
    <vehicle id="-flow-random-route-ae8e85fc-c9ba-4eaf-a639-5d778b5dcf0a--6139259763444990309-28-0.0" type="actor-car-6834525769950294759" depart="0.00" departLane="0" departPos="247.10" departSpeed="max" arrivalLane="0" arrivalPos="47.99">
        <route edges="edge1 edge0"/>
    </vehicle>
    <vehicle id="-flow-random-route-ae9bc6a4-8ae4-458c-a716-8d0ec820fa8f--6139259763444990309-13-0.0" type="actor-car-6834525769950294759" depart="0.00" departLane="1" departPos="24.37" departSpeed="max" arrivalLane="1" arrivalPos="407.68">
        <route edges="edge0 edge1"/>
    </vehicle>
    <vehicle id="-flow-random-route-c403c696-144f-43c2-a58d-186b0cf4741f--6139259763444990309-14-0.0" type="actor-car-6834525769950294759" depart="0.00" departLane="1" departPos="15.27" departSpeed="max" arrivalLane="1" arrivalPos="18.71">
        <route edges="edge0 edge1"/>
    </vehicle>
    <vehicle id="-flow-random-route-d5edd6a6-7003-4c8c-8b50-98386bbd039a--6139259763444990309-25-0.0" type="actor-car-6834525769950294759" depart="0.00" departLane="1" departPos="58.62" departSpeed="max" arrivalLane="2" arrivalPos="21.05">
        <route edges="edge1 edge0"/>
    </vehicle>
    <vehicle id="-flow-random-route-de9126b3-7f37-4d42-93b5-26cc2a2e52da--6139259763444990309-21-0.0" type="actor-car-6834525769950294759" depart="0.00" departLane="2" departPos="4.63" departSpeed="max" arrivalLane="2" arrivalPos="481.23">
        <route edges="edge0 edge1"/>
    </vehicle>
    <vehicle id="-flow-random-route-e13c9bed-5362-4b2e-9232-1639bb94eb3c--6139259763444990309-2-0.0" type="actor-car-6834525769950294759" depart="0.00" departLane="2" departPos="270.85" departSpeed="max" arrivalLane="2" arrivalPos="18.83">
        <route edges="edge1 edge0"/>
    </vehicle>
    <vehicle id="-flow-random-route-ef7a1ff3-fa32-48fa-a913-f566f8c6c1dd--6139259763444990309-16-0.0" type="actor-car-6834525769950294759" depart="0.00" departLane="2" departPos="55.19" departSpeed="max" arrivalLane="1" arrivalPos="154.60">
        <route edges="edge0 edge1"/>
    </vehicle>
    <vehicle id="-flow-random-route-fe996c82-d0ee-4b1c-86a1-2d8eb6a0f174--6139259763444990309-27-0.0" type="actor-car-6834525769950294759" depart="0.00" departLane="0" departPos="62.98" departSpeed="max" arrivalLane="1" arrivalPos="382.56">
        <route edges="edge0 edge1"/>
    </vehicle>
    <vehicle id="-flow-random-route-0b6f9bbd-e9e7-4a59-8e24-be774ba00fe8--6139259763444990309-5-0.1" type="actor-car-6834525769950294759" depart="120.00" departLane="2" departPos="195.29" departSpeed="max" arrivalLane="0" arrivalPos="85.27">
        <route edges="edge1 edge0"/>
    </vehicle>
    <vehicle id="-flow-random-route-137115e4-9519-4c34-a724-ce52e86b6eb5--6139259763444990309-8-0.1" type="actor-car-6834525769950294759" depart="120.00" departLane="1" departPos="59.61" departSpeed="max" arrivalLane="2" arrivalPos="62.24">
        <route edges="edge0 edge1"/>
    </vehicle>
    <vehicle id="-flow-random-route-15e92bc9-d31f-40b1-851e-2db798aa80ac--6139259763444990309-12-0.1" type="actor-car-6834525769950294759" depart="120.00" departLane="1" departPos="149.23" departSpeed="max" arrivalLane="0" arrivalPos="19.06">
        <route edges="edge1 edge0"/>
    </vehicle>
    <vehicle id="-flow-random-route-1662d969-4621-42b7-aed5-cc2de256e1f3--6139259763444990309-6-0.1" type="actor-car-6834525769950294759" depart="120.00" departLane="2" departPos="65.15" departSpeed="max" arrivalLane="2" arrivalPos="446.25">
        <route edges="edge0 edge1"/>
    </vehicle>
    <vehicle id="-flow-random-route-19390d05-9c76-4fa7-a111-eac2c80ae427--6139259763444990309-15-0.1" type="actor-car-6834525769950294759" depart="120.00" departLane="2" departPos="64.58" departSpeed="max" arrivalLane="2" arrivalPos="98.36">
        <route edges="edge0 edge1"/>
    </vehicle>
    <vehicle id="-flow-random-route-1b8dc3da-2708-480c-b277-e27b61765b59--6139259763444990309-10-0.1" type="actor-car-6834525769950294759" depart="120.00" departLane="2" departPos="80.08" departSpeed="max" arrivalLane="2" arrivalPos="34.91">
        <route edges="edge0 edge1"/>
    </vehicle>
    <vehicle id="-flow-random-route-299e833d-712f-4815-aa99-bf86378e4451--6139259763444990309-11-0.1" type="actor-car-6834525769950294759" depart="120.00" departLane="0" departPos="22.60" departSpeed="max" arrivalLane="1" arrivalPos="52.26">
        <route edges="edge1 edge0"/>
    </vehicle>
    <vehicle id="-flow-random-route-37816a18-1735-48b3-b75a-9ea05bf0276b--6139259763444990309-1-0.1" type="actor-car-6834525769950294759" depart="120.00" departLane="0" departPos="73.93" departSpeed="max" arrivalLane="0" arrivalPos="80.50">
        <route edges="edge0 edge1"/>
    </vehicle>
    <vehicle id="-flow-random-route-39a431a1-5c7c-45fc-ba28-b7ea8c777417--6139259763444990309-24-0.1" type="actor-car-6834525769950294759" depart="120.00" departLane="1" departPos="34.30" departSpeed="max" arrivalLane="0" arrivalPos="103.16">
        <route edges="edge0 edge1"/>
    </vehicle>
    <vehicle id="-flow-random-route-3eff20a5-5558-432b-881a-4087745502d6--6139259763444990309-29-0.1" type="actor-car-6834525769950294759" depart="120.00" departLane="1" departPos="117.08" departSpeed="max" arrivalLane="0" arrivalPos="75.07">
        <route edges="edge1 edge0"/>
    </vehicle>
    <vehicle id="-flow-random-route-41ce27fb-9c7d-4b0f-9cc7-999c5add002d--6139259763444990309-23-0.1" type="actor-car-6834525769950294759" depart="120.00" departLane="1" departPos="178.30" departSpeed="max" arrivalLane="0" arrivalPos="76.86">
        <route edges="edge1 edge0"/>
    </vehicle>
    <vehicle id="-flow-random-route-5bdda7cf-f3dc-4fd6-879f-b3806a9cc4c4--6139259763444990309-22-0.1" type="actor-car-6834525769950294759" depart="120.00" departLane="2" departPos="452.58" departSpeed="max" arrivalLane="2" arrivalPos="58.73">
        <route edges="edge1 edge0"/>
    </vehicle>
    <vehicle id="-flow-random-route-5e926fb8-f4c3-40eb-8031-909bb4e20c68--6139259763444990309-19-0.1" type="actor-car-6834525769950294759" depart="120.00" departLane="0" departPos="323.34" departSpeed="max" arrivalLane="1" arrivalPos="84.24">
        <route edges="edge1 edge0"/>
    </vehicle>
    <vehicle id="-flow-random-route-64fe0043-d999-4626-938a-7cb69a562ff7--6139259763444990309-3-0.1" type="actor-car-6834525769950294759" depart="120.00" departLane="2" departPos="85.17" departSpeed="max" arrivalLane="2" arrivalPos="122.93">
        <route edges="edge0 edge1"/>
    </vehicle>
    <vehicle id="-flow-random-route-67eae232-c3eb-448b-a9d9-83477cb9a82f--6139259763444990309-17-0.1" type="actor-car-6834525769950294759" depart="120.00" departLane="1" departPos="18.71" departSpeed="max" arrivalLane="2" arrivalPos="253.27">
        <route edges="edge0 edge1"/>
    </vehicle>
    <vehicle id="-flow-random-route-802dc959-4827-412c-8a35-e3bc5e918f9e--6139259763444990309-0-0.1" type="actor-car-6834525769950294759" depart="120.00" departLane="1" departPos="216.02" departSpeed="max" arrivalLane="2" arrivalPos="18.27">
        <route edges="edge1 edge0"/>
    </vehicle>
    <vehicle id="-flow-random-route-9079e62a-549a-417d-ada1-4e82222f4bbb--6139259763444990309-7-0.1" type="actor-car-6834525769950294759" depart="120.00" departLane="1" departPos="49.98" departSpeed="max" arrivalLane="1" arrivalPos="8.27">
        <route edges="edge1 edge0"/>
    </vehicle>
    <vehicle id="-flow-random-route-9184067c-9621-4143-8f3b-889263e1633b--6139259763444990309-18-0.1" type="actor-car-6834525769950294759" depart="120.00" departLane="2" departPos="102.99" departSpeed="max" arrivalLane="1" arrivalPos="17.41">
        <route edges="edge1 edge0"/>
    </vehicle>
    <vehicle id="-flow-random-route-944f7dc5-b47f-4995-9379-d46ca7af2fa6--6139259763444990309-26-0.1" type="actor-car-6834525769950294759" depart="120.00" departLane="0" departPos="49.52" departSpeed="max" arrivalLane="2" arrivalPos="29.81">
        <route edges="edge0 edge1"/>
    </vehicle>
    <vehicle id="-flow-random-route-95c3e95e-ccc8-4e6f-8102-202f9d14e92b--6139259763444990309-9-0.1" type="actor-car-6834525769950294759" depart="120.00" departLane="0" departPos="23.82" departSpeed="max" arrivalLane="0" arrivalPos="427.60">
        <route edges="edge0 edge1"/>
    </vehicle>
    <vehicle id="-flow-random-route-a7287d99-9ee9-4ef4-be5d-27d6505e78c1--6139259763444990309-4-0.1" type="actor-car-6834525769950294759" depart="120.00" departLane="2" departPos="11.31" departSpeed="max" arrivalLane="2" arrivalPos="281.75">
        <route edges="edge0 edge1"/>
    </vehicle>
    <vehicle id="-flow-random-route-a88fd0eb-5d3c-4cc5-a1c6-4e4188c94a41--6139259763444990309-20-0.1" type="actor-car-6834525769950294759" depart="120.00" departLane="2" departPos="479.09" departSpeed="max" arrivalLane="0" arrivalPos="63.38">
        <route edges="edge1 edge0"/>
    </vehicle>
    <vehicle id="-flow-random-route-ae8e85fc-c9ba-4eaf-a639-5d778b5dcf0a--6139259763444990309-28-0.1" type="actor-car-6834525769950294759" depart="120.00" departLane="0" departPos="247.10" departSpeed="max" arrivalLane="0" arrivalPos="47.99">
        <route edges="edge1 edge0"/>
    </vehicle>
    <vehicle id="-flow-random-route-ae9bc6a4-8ae4-458c-a716-8d0ec820fa8f--6139259763444990309-13-0.1" type="actor-car-6834525769950294759" depart="120.00" departLane="1" departPos="24.37" departSpeed="max" arrivalLane="1" arrivalPos="407.68">
        <route edges="edge0 edge1"/>
    </vehicle>
    <vehicle id="-flow-random-route-c403c696-144f-43c2-a58d-186b0cf4741f--6139259763444990309-14-0.1" type="actor-car-6834525769950294759" depart="120.00" departLane="1" departPos="15.27" departSpeed="max" arrivalLane="1" arrivalPos="18.71">
        <route edges="edge0 edge1"/>
    </vehicle>
    <vehicle id="-flow-random-route-d5edd6a6-7003-4c8c-8b50-98386bbd039a--6139259763444990309-25-0.1" type="actor-car-6834525769950294759" depart="120.00" departLane="1" departPos="58.62" departSpeed="max" arrivalLane="2" arrivalPos="21.05">
        <route edges="edge1 edge0"/>
    </vehicle>
    <vehicle id="-flow-random-route-de9126b3-7f37-4d42-93b5-26cc2a2e52da--6139259763444990309-21-0.1" type="actor-car-6834525769950294759" depart="120.00" departLane="2" departPos="4.63" departSpeed="max" arrivalLane="2" arrivalPos="481.23">
        <route edges="edge0 edge1"/>
    </vehicle>
    <vehicle id="-flow-random-route-e13c9bed-5362-4b2e-9232-1639bb94eb3c--6139259763444990309-2-0.1" type="actor-car-6834525769950294759" depart="120.00" departLane="2" departPos="270.85" departSpeed="max" arrivalLane="2" arrivalPos="18.83">
        <route edges="edge1 edge0"/>
    </vehicle>
    <vehicle id="-flow-random-route-ef7a1ff3-fa32-48fa-a913-f566f8c6c1dd--6139259763444990309-16-0.1" type="actor-car-6834525769950294759" depart="120.00" departLane="2" departPos="55.19" departSpeed="max" arrivalLane="1" arrivalPos="154.60">
        <route edges="edge0 edge1"/>
    </vehicle>
    <vehicle id="-flow-random-route-fe996c82-d0ee-4b1c-86a1-2d8eb6a0f174--6139259763444990309-27-0.1" type="actor-car-6834525769950294759" depart="120.00" departLane="0" departPos="62.98" departSpeed="max" arrivalLane="1" arrivalPos="382.56">
        <route edges="edge0 edge1"/>
    </vehicle>
    <vehicle id="-flow-random-route-0b6f9bbd-e9e7-4a59-8e24-be774ba00fe8--6139259763444990309-5-0.2" type="actor-car-6834525769950294759" depart="240.00" departLane="2" departPos="195.29" departSpeed="max" arrivalLane="0" arrivalPos="85.27">
        <route edges="edge1 edge0"/>
    </vehicle>
    <vehicle id="-flow-random-route-137115e4-9519-4c34-a724-ce52e86b6eb5--6139259763444990309-8-0.2" type="actor-car-6834525769950294759" depart="240.00" departLane="1" departPos="59.61" departSpeed="max" arrivalLane="2" arrivalPos="62.24">
        <route edges="edge0 edge1"/>
    </vehicle>
    <vehicle id="-flow-random-route-15e92bc9-d31f-40b1-851e-2db798aa80ac--6139259763444990309-12-0.2" type="actor-car-6834525769950294759" depart="240.00" departLane="1" departPos="149.23" departSpeed="max" arrivalLane="0" arrivalPos="19.06">
        <route edges="edge1 edge0"/>
    </vehicle>
    <vehicle id="-flow-random-route-1662d969-4621-42b7-aed5-cc2de256e1f3--6139259763444990309-6-0.2" type="actor-car-6834525769950294759" depart="240.00" departLane="2" departPos="65.15" departSpeed="max" arrivalLane="2" arrivalPos="446.25">
        <route edges="edge0 edge1"/>
    </vehicle>
    <vehicle id="-flow-random-route-19390d05-9c76-4fa7-a111-eac2c80ae427--6139259763444990309-15-0.2" type="actor-car-6834525769950294759" depart="240.00" departLane="2" departPos="64.58" departSpeed="max" arrivalLane="2" arrivalPos="98.36">
        <route edges="edge0 edge1"/>
    </vehicle>
    <vehicle id="-flow-random-route-1b8dc3da-2708-480c-b277-e27b61765b59--6139259763444990309-10-0.2" type="actor-car-6834525769950294759" depart="240.00" departLane="2" departPos="80.08" departSpeed="max" arrivalLane="2" arrivalPos="34.91">
        <route edges="edge0 edge1"/>
    </vehicle>
    <vehicle id="-flow-random-route-299e833d-712f-4815-aa99-bf86378e4451--6139259763444990309-11-0.2" type="actor-car-6834525769950294759" depart="240.00" departLane="0" departPos="22.60" departSpeed="max" arrivalLane="1" arrivalPos="52.26">
        <route edges="edge1 edge0"/>
    </vehicle>
    <vehicle id="-flow-random-route-37816a18-1735-48b3-b75a-9ea05bf0276b--6139259763444990309-1-0.2" type="actor-car-6834525769950294759" depart="240.00" departLane="0" departPos="73.93" departSpeed="max" arrivalLane="0" arrivalPos="80.50">
        <route edges="edge0 edge1"/>
    </vehicle>
    <vehicle id="-flow-random-route-39a431a1-5c7c-45fc-ba28-b7ea8c777417--6139259763444990309-24-0.2" type="actor-car-6834525769950294759" depart="240.00" departLane="1" departPos="34.30" departSpeed="max" arrivalLane="0" arrivalPos="103.16">
        <route edges="edge0 edge1"/>
    </vehicle>
    <vehicle id="-flow-random-route-3eff20a5-5558-432b-881a-4087745502d6--6139259763444990309-29-0.2" type="actor-car-6834525769950294759" depart="240.00" departLane="1" departPos="117.08" departSpeed="max" arrivalLane="0" arrivalPos="75.07">
        <route edges="edge1 edge0"/>
    </vehicle>
    <vehicle id="-flow-random-route-41ce27fb-9c7d-4b0f-9cc7-999c5add002d--6139259763444990309-23-0.2" type="actor-car-6834525769950294759" depart="240.00" departLane="1" departPos="178.30" departSpeed="max" arrivalLane="0" arrivalPos="76.86">
        <route edges="edge1 edge0"/>
    </vehicle>
    <vehicle id="-flow-random-route-5bdda7cf-f3dc-4fd6-879f-b3806a9cc4c4--6139259763444990309-22-0.2" type="actor-car-6834525769950294759" depart="240.00" departLane="2" departPos="452.58" departSpeed="max" arrivalLane="2" arrivalPos="58.73">
        <route edges="edge1 edge0"/>
    </vehicle>
    <vehicle id="-flow-random-route-5e926fb8-f4c3-40eb-8031-909bb4e20c68--6139259763444990309-19-0.2" type="actor-car-6834525769950294759" depart="240.00" departLane="0" departPos="323.34" departSpeed="max" arrivalLane="1" arrivalPos="84.24">
        <route edges="edge1 edge0"/>
    </vehicle>
    <vehicle id="-flow-random-route-64fe0043-d999-4626-938a-7cb69a562ff7--6139259763444990309-3-0.2" type="actor-car-6834525769950294759" depart="240.00" departLane="2" departPos="85.17" departSpeed="max" arrivalLane="2" arrivalPos="122.93">
        <route edges="edge0 edge1"/>
    </vehicle>
    <vehicle id="-flow-random-route-67eae232-c3eb-448b-a9d9-83477cb9a82f--6139259763444990309-17-0.2" type="actor-car-6834525769950294759" depart="240.00" departLane="1" departPos="18.71" departSpeed="max" arrivalLane="2" arrivalPos="253.27">
        <route edges="edge0 edge1"/>
    </vehicle>
    <vehicle id="-flow-random-route-802dc959-4827-412c-8a35-e3bc5e918f9e--6139259763444990309-0-0.2" type="actor-car-6834525769950294759" depart="240.00" departLane="1" departPos="216.02" departSpeed="max" arrivalLane="2" arrivalPos="18.27">
        <route edges="edge1 edge0"/>
    </vehicle>
    <vehicle id="-flow-random-route-9079e62a-549a-417d-ada1-4e82222f4bbb--6139259763444990309-7-0.2" type="actor-car-6834525769950294759" depart="240.00" departLane="1" departPos="49.98" departSpeed="max" arrivalLane="1" arrivalPos="8.27">
        <route edges="edge1 edge0"/>
    </vehicle>
    <vehicle id="-flow-random-route-9184067c-9621-4143-8f3b-889263e1633b--6139259763444990309-18-0.2" type="actor-car-6834525769950294759" depart="240.00" departLane="2" departPos="102.99" departSpeed="max" arrivalLane="1" arrivalPos="17.41">
        <route edges="edge1 edge0"/>
    </vehicle>
    <vehicle id="-flow-random-route-944f7dc5-b47f-4995-9379-d46ca7af2fa6--6139259763444990309-26-0.2" type="actor-car-6834525769950294759" depart="240.00" departLane="0" departPos="49.52" departSpeed="max" arrivalLane="2" arrivalPos="29.81">
        <route edges="edge0 edge1"/>
    </vehicle>
    <vehicle id="-flow-random-route-95c3e95e-ccc8-4e6f-8102-202f9d14e92b--6139259763444990309-9-0.2" type="actor-car-6834525769950294759" depart="240.00" departLane="0" departPos="23.82" departSpeed="max" arrivalLane="0" arrivalPos="427.60">
        <route edges="edge0 edge1"/>
    </vehicle>
    <vehicle id="-flow-random-route-a7287d99-9ee9-4ef4-be5d-27d6505e78c1--6139259763444990309-4-0.2" type="actor-car-6834525769950294759" depart="240.00" departLane="2" departPos="11.31" departSpeed="max" arrivalLane="2" arrivalPos="281.75">
        <route edges="edge0 edge1"/>
    </vehicle>
    <vehicle id="-flow-random-route-a88fd0eb-5d3c-4cc5-a1c6-4e4188c94a41--6139259763444990309-20-0.2" type="actor-car-6834525769950294759" depart="240.00" departLane="2" departPos="479.09" departSpeed="max" arrivalLane="0" arrivalPos="63.38">
        <route edges="edge1 edge0"/>
    </vehicle>
    <vehicle id="-flow-random-route-ae8e85fc-c9ba-4eaf-a639-5d778b5dcf0a--6139259763444990309-28-0.2" type="actor-car-6834525769950294759" depart="240.00" departLane="0" departPos="247.10" departSpeed="max" arrivalLane="0" arrivalPos="47.99">
        <route edges="edge1 edge0"/>
    </vehicle>
    <vehicle id="-flow-random-route-ae9bc6a4-8ae4-458c-a716-8d0ec820fa8f--6139259763444990309-13-0.2" type="actor-car-6834525769950294759" depart="240.00" departLane="1" departPos="24.37" departSpeed="max" arrivalLane="1" arrivalPos="407.68">
        <route edges="edge0 edge1"/>
    </vehicle>
    <vehicle id="-flow-random-route-c403c696-144f-43c2-a58d-186b0cf4741f--6139259763444990309-14-0.2" type="actor-car-6834525769950294759" depart="240.00" departLane="1" departPos="15.27" departSpeed="max" arrivalLane="1" arrivalPos="18.71">
        <route edges="edge0 edge1"/>
    </vehicle>
    <vehicle id="-flow-random-route-d5edd6a6-7003-4c8c-8b50-98386bbd039a--6139259763444990309-25-0.2" type="actor-car-6834525769950294759" depart="240.00" departLane="1" departPos="58.62" departSpeed="max" arrivalLane="2" arrivalPos="21.05">
        <route edges="edge1 edge0"/>
    </vehicle>
    <vehicle id="-flow-random-route-de9126b3-7f37-4d42-93b5-26cc2a2e52da--6139259763444990309-21-0.2" type="actor-car-6834525769950294759" depart="240.00" departLane="2" departPos="4.63" departSpeed="max" arrivalLane="2" arrivalPos="481.23">
        <route edges="edge0 edge1"/>
    </vehicle>
    <vehicle id="-flow-random-route-e13c9bed-5362-4b2e-9232-1639bb94eb3c--6139259763444990309-2-0.2" type="actor-car-6834525769950294759" depart="240.00" departLane="2" departPos="270.85" departSpeed="max" arrivalLane="2" arrivalPos="18.83">
        <route edges="edge1 edge0"/>
    </vehicle>
    <vehicle id="-flow-random-route-ef7a1ff3-fa32-48fa-a913-f566f8c6c1dd--6139259763444990309-16-0.2" type="actor-car-6834525769950294759" depart="240.00" departLane="2" departPos="55.19" departSpeed="max" arrivalLane="1" arrivalPos="154.60">
        <route edges="edge0 edge1"/>
    </vehicle>
    <vehicle id="-flow-random-route-fe996c82-d0ee-4b1c-86a1-2d8eb6a0f174--6139259763444990309-27-0.2" type="actor-car-6834525769950294759" depart="240.00" departLane="0" departPos="62.98" departSpeed="max" arrivalLane="1" arrivalPos="382.56">
        <route edges="edge0 edge1"/>
    </vehicle>
    <vehicle id="-flow-random-route-0b6f9bbd-e9e7-4a59-8e24-be774ba00fe8--6139259763444990309-5-0.3" type="actor-car-6834525769950294759" depart="360.00" departLane="2" departPos="195.29" departSpeed="max" arrivalLane="0" arrivalPos="85.27">
        <route edges="edge1 edge0"/>
    </vehicle>
    <vehicle id="-flow-random-route-137115e4-9519-4c34-a724-ce52e86b6eb5--6139259763444990309-8-0.3" type="actor-car-6834525769950294759" depart="360.00" departLane="1" departPos="59.61" departSpeed="max" arrivalLane="2" arrivalPos="62.24">
        <route edges="edge0 edge1"/>
    </vehicle>
    <vehicle id="-flow-random-route-15e92bc9-d31f-40b1-851e-2db798aa80ac--6139259763444990309-12-0.3" type="actor-car-6834525769950294759" depart="360.00" departLane="1" departPos="149.23" departSpeed="max" arrivalLane="0" arrivalPos="19.06">
        <route edges="edge1 edge0"/>
    </vehicle>
    <vehicle id="-flow-random-route-1662d969-4621-42b7-aed5-cc2de256e1f3--6139259763444990309-6-0.3" type="actor-car-6834525769950294759" depart="360.00" departLane="2" departPos="65.15" departSpeed="max" arrivalLane="2" arrivalPos="446.25">
        <route edges="edge0 edge1"/>
    </vehicle>
    <vehicle id="-flow-random-route-19390d05-9c76-4fa7-a111-eac2c80ae427--6139259763444990309-15-0.3" type="actor-car-6834525769950294759" depart="360.00" departLane="2" departPos="64.58" departSpeed="max" arrivalLane="2" arrivalPos="98.36">
        <route edges="edge0 edge1"/>
    </vehicle>
    <vehicle id="-flow-random-route-1b8dc3da-2708-480c-b277-e27b61765b59--6139259763444990309-10-0.3" type="actor-car-6834525769950294759" depart="360.00" departLane="2" departPos="80.08" departSpeed="max" arrivalLane="2" arrivalPos="34.91">
        <route edges="edge0 edge1"/>
    </vehicle>
    <vehicle id="-flow-random-route-299e833d-712f-4815-aa99-bf86378e4451--6139259763444990309-11-0.3" type="actor-car-6834525769950294759" depart="360.00" departLane="0" departPos="22.60" departSpeed="max" arrivalLane="1" arrivalPos="52.26">
        <route edges="edge1 edge0"/>
    </vehicle>