<?xml version="1.0" encoding="UTF-8"?>

<!-- generated on Sun Aug 30 13:07:45 2020 by Eclipse SUMO duarouter Version 1.6.0
<configuration xmlns:xsi="http://www.w3.org/2001/XMLSchema-instance" xsi:noNamespaceSchemaLocation="http://sumo.dlr.de/xsd/duarouterConfiguration.xsd">

    <input>
        <net-file value="../dataset_public/simple_loop/simpleloop_a/map.net.xml"/>
        <route-files value="/tmp/tmpjpg0_sa6/trips.trips.xml"/>
    </input>

    <output>
        <output-file value="../dataset_public/simple_loop/simpleloop_a/traffic/30_patient_car.rou.xml"/>
        <alternatives-output value="../dataset_public/simple_loop/simpleloop_a/traffic/30_patient_car.rou.alt.xml"/>
    </output>

    <processing>
        <unsorted-input value="true"/>
        <repair value="true"/>
    </processing>

    <report>
        <error-log value="/tmp/smarts/_duarouter_routing/traffic/30_patient_car.log"/>
        <no-step-log value="true"/>
    </report>

    <random_number>
        <seed value="42"/>
    </random_number>

</configuration>
-->

<routes xmlns:xsi="http://www.w3.org/2001/XMLSchema-instance" xsi:noNamespaceSchemaLocation="http://sumo.dlr.de/xsd/routes_file.xsd">
    <vType id="actor-car-5042580840728172221" minGap="2.50" speedFactor="normc(0.50,0.20,0.20,2.00)" vClass="passenger" impatience="0.50" lcCooperative="0.5" lcImpatience="0" jmDriveAfterYellowTime="1.0" accel="2.6" decel="4.5" sigma="0.5"/>
    <vehicle id="-flow-random-route-02bb1d4b-dc95-4a97-a3c1-fe649b43d1ca-454617684582866010-15-0.0" type="actor-car-5042580840728172221" depart="0.00" departLane="0" departPos="73.93" departSpeed="max" arrivalLane="0" arrivalPos="80.50">
        <route edges="edge0 edge1"/>
    </vehicle>
    <vehicle id="-flow-random-route-08de553e-1d7b-4e45-b751-e8739b2b4019-454617684582866010-29-0.0" type="actor-car-5042580840728172221" depart="0.00" departLane="1" departPos="34.30" departSpeed="max" arrivalLane="0" arrivalPos="103.16">
        <route edges="edge0 edge1"/>
    </vehicle>
    <vehicle id="-flow-random-route-0b397efe-b76b-493a-9672-de8135f7ee62-454617684582866010-13-0.0" type="actor-car-5042580840728172221" depart="0.00" departLane="2" departPos="102.99" departSpeed="max" arrivalLane="1" arrivalPos="17.41">
        <route edges="edge1 edge0"/>
    </vehicle>
    <vehicle id="-flow-random-route-0b5ed625-6a6a-4d83-a3ba-ca9ff708aa12-454617684582866010-8-0.0" type="actor-car-5042580840728172221" depart="0.00" departLane="2" departPos="270.85" departSpeed="max" arrivalLane="2" arrivalPos="18.83">
        <route edges="edge1 edge0"/>
    </vehicle>
    <vehicle id="-flow-random-route-1627869b-ec71-4eb8-9781-f0b728042c73-454617684582866010-25-0.0" type="actor-car-5042580840728172221" depart="0.00" departLane="0" departPos="49.52" departSpeed="max" arrivalLane="2" arrivalPos="29.81">
        <route edges="edge0 edge1"/>
    </vehicle>
    <vehicle id="-flow-random-route-21bc4393-dc45-4c84-8f24-51f845a2fd68-454617684582866010-2-0.0" type="actor-car-5042580840728172221" depart="0.00" departLane="1" departPos="149.23" departSpeed="max" arrivalLane="0" arrivalPos="19.06">
        <route edges="edge1 edge0"/>
    </vehicle>
    <vehicle id="-flow-random-route-27bf624c-96a4-4ea5-b048-b4c48d880c5f-454617684582866010-21-0.0" type="actor-car-5042580840728172221" depart="0.00" departLane="2" departPos="479.09" departSpeed="max" arrivalLane="0" arrivalPos="63.38">
        <route edges="edge1 edge0"/>
    </vehicle>
    <vehicle id="-flow-random-route-2dddd652-c1a5-4247-84c4-2a644c69d254-454617684582866010-9-0.0" type="actor-car-5042580840728172221" depart="0.00" departLane="1" departPos="59.61" departSpeed="max" arrivalLane="2" arrivalPos="62.24">
        <route edges="edge0 edge1"/>
    </vehicle>
    <vehicle id="-flow-random-route-30496add-d911-43c2-a1c3-ac7ca904aa28-454617684582866010-16-0.0" type="actor-car-5042580840728172221" depart="0.00" departLane="1" departPos="178.30" departSpeed="max" arrivalLane="0" arrivalPos="76.86">
        <route edges="edge1 edge0"/>
    </vehicle>
    <vehicle id="-flow-random-route-43686511-1754-49b3-899d-b708e6fde148-454617684582866010-7-0.0" type="actor-car-5042580840728172221" depart="0.00" departLane="1" departPos="58.62" departSpeed="max" arrivalLane="2" arrivalPos="21.05">
        <route edges="edge1 edge0"/>
    </vehicle>
    <vehicle id="-flow-random-route-450dafe2-4d98-4c97-8adc-bd71ab58c282-454617684582866010-0-0.0" type="actor-car-5042580840728172221" depart="0.00" departLane="1" departPos="18.71" departSpeed="max" arrivalLane="2" arrivalPos="253.27">
        <route edges="edge0 edge1"/>
    </vehicle>
    <vehicle id="-flow-random-route-48626c53-8d41-4a9a-8bdf-dc658b8b4cb7-454617684582866010-11-0.0" type="actor-car-5042580840728172221" depart="0.00" departLane="0" departPos="247.10" departSpeed="max" arrivalLane="0" arrivalPos="47.99">
        <route edges="edge1 edge0"/>
    </vehicle>
    <vehicle id="-flow-random-route-4f9440d4-d4d2-46e1-b34b-5f01d6aa00f6-454617684582866010-5-0.0" type="actor-car-5042580840728172221" depart="0.00" departLane="2" departPos="65.15" departSpeed="max" arrivalLane="2" arrivalPos="446.25">
        <route edges="edge0 edge1"/>
    </vehicle>
    <vehicle id="-flow-random-route-569fdd41-2e24-482b-8e09-74aa571dcb75-454617684582866010-14-0.0" type="actor-car-5042580840728172221" depart="0.00" departLane="1" departPos="216.02" departSpeed="max" arrivalLane="2" arrivalPos="18.27">
        <route edges="edge1 edge0"/>
    </vehicle>
    <vehicle id="-flow-random-route-56b135ac-75d8-46b8-acdc-cf3f44a5bdb7-454617684582866010-17-0.0" type="actor-car-5042580840728172221" depart="0.00" departLane="1" departPos="117.08" departSpeed="max" arrivalLane="0" arrivalPos="75.07">
        <route edges="edge1 edge0"/>
    </vehicle>
    <vehicle id="-flow-random-route-642a33a8-210d-448b-bc8f-2966ebe4f064-454617684582866010-1-0.0" type="actor-car-5042580840728172221" depart="0.00" departLane="2" departPos="85.17" departSpeed="max" arrivalLane="2" arrivalPos="122.93">
        <route edges="edge0 edge1"/>
    </vehicle>
    <vehicle id="-flow-random-route-6f2c2e8e-8e21-4cf9-98ac-34b39ecc1d1c-454617684582866010-23-0.0" type="actor-car-5042580840728172221" depart="0.00" departLane="0" departPos="23.82" departSpeed="max" arrivalLane="0" arrivalPos="427.60">
        <route edges="edge0 edge1"/>
    </vehicle>
    <vehicle id="-flow-random-route-882c06bc-5f61-4a1f-afa7-045a0c5ba924-454617684582866010-10-0.0" type="actor-car-5042580840728172221" depart="0.00" departLane="0" departPos="62.98" departSpeed="max" arrivalLane="1" arrivalPos="382.56">
        <route edges="edge0 edge1"/>
    </vehicle>
    <vehicle id="-flow-random-route-8cdeb023-a2c5-4c73-ba1c-7fa972a707dd-454617684582866010-24-0.0" type="actor-car-5042580840728172221" depart="0.00" departLane="1" departPos="15.27" departSpeed="max" arrivalLane="1" arrivalPos="18.71">
        <route edges="edge0 edge1"/>
    </vehicle>
    <vehicle id="-flow-random-route-92aff243-c077-4416-a33d-8e766982d80e-454617684582866010-27-0.0" type="actor-car-5042580840728172221" depart="0.00" departLane="2" departPos="452.58" departSpeed="max" arrivalLane="2" arrivalPos="58.73">
        <route edges="edge1 edge0"/>
    </vehicle>
    <vehicle id="-flow-random-route-92c1d20d-5c93-4c69-b4f8-84c898689e72-454617684582866010-12-0.0" type="actor-car-5042580840728172221" depart="0.00" departLane="2" departPos="11.31" departSpeed="max" arrivalLane="2" arrivalPos="281.75">
        <route edges="edge0 edge1"/>
    </vehicle>
    <vehicle id="-flow-random-route-b27f70d0-2157-4323-a3f0-2793048159e8-454617684582866010-20-0.0" type="actor-car-5042580840728172221" depart="0.00" departLane="1" departPos="24.37" departSpeed="max" arrivalLane="1" arrivalPos="407.68">
        <route edges="edge0 edge1"/>
    </vehicle>
    <vehicle id="-flow-random-route-b7b8b48a-1d56-4e91-8ce3-70c638653229-454617684582866010-4-0.0" type="actor-car-5042580840728172221" depart="0.00" departLane="2" departPos="195.29" departSpeed="max" arrivalLane="0" arrivalPos="85.27">
        <route edges="edge1 edge0"/>
    </vehicle>
    <vehicle id="-flow-random-route-bb296294-6090-4961-b18e-6a0fe939459e-454617684582866010-26-0.0" type="actor-car-5042580840728172221" depart="0.00" departLane="2" departPos="4.63" departSpeed="max" arrivalLane="2" arrivalPos="481.23">
        <route edges="edge0 edge1"/>
    </vehicle>
    <vehicle id="-flow-random-route-c045dbb0-adff-4670-b0de-94fe733e797e-454617684582866010-18-0.0" type="actor-car-5042580840728172221" depart="0.00" departLane="1" departPos="49.98" departSpeed="max" arrivalLane="1" arrivalPos="8.27">
        <route edges="edge1 edge0"/>
    </vehicle>
    <vehicle id="-flow-random-route-e0cbbd24-42c1-4543-a4bf-0646964cc559-454617684582866010-19-0.0" type="actor-car-5042580840728172221" depart="0.00" departLane="0" departPos="22.60" departSpeed="max" arrivalLane="1" arrivalPos="52.26">
        <route edges="edge1 edge0"/>
    </vehicle>
    <vehicle id="-flow-random-route-e7bc7040-e9aa-42f4-b4b6-1c23f1caaeb4-454617684582866010-22-0.0" type="actor-car-5042580840728172221" depart="0.00" departLane="0" departPos="323.34" departSpeed="max" arrivalLane="1" arrivalPos="84.24">
        <route edges="edge1 edge0"/>
    </vehicle>
    <vehicle id="-flow-random-route-ebb77753-d843-4941-96e4-1c57cbd1d1ed-454617684582866010-28-0.0" type="actor-car-5042580840728172221" depart="0.00" departLane="2" departPos="80.08" departSpeed="max" arrivalLane="2" arrivalPos="34.91">
        <route edges="edge0 edge1"/>
    </vehicle>
    <vehicle id="-flow-random-route-ef051fc0-c399-4d8e-822a-49dde10757f4-454617684582866010-6-0.0" type="actor-car-5042580840728172221" depart="0.00" departLane="2" departPos="55.19" departSpeed="max" arrivalLane="1" arrivalPos="154.60">
        <route edges="edge0 edge1"/>
    </vehicle>
    <vehicle id="-flow-random-route-fb6101c6-aaf1-4a74-8097-760acf751d39-454617684582866010-3-0.0" type="actor-car-5042580840728172221" depart="0.00" departLane="2" departPos="64.58" departSpeed="max" arrivalLane="2" arrivalPos="98.36">
        <route edges="edge0 edge1"/>
    </vehicle>
    <vehicle id="-flow-random-route-02bb1d4b-dc95-4a97-a3c1-fe649b43d1ca-454617684582866010-15-0.1" type="actor-car-5042580840728172221" depart="120.00" departLane="0" departPos="73.93" departSpeed="max" arrivalLane="0" arrivalPos="80.50">
        <route edges="edge0 edge1"/>
    </vehicle>
    <vehicle id="-flow-random-route-08de553e-1d7b-4e45-b751-e8739b2b4019-454617684582866010-29-0.1" type="actor-car-5042580840728172221" depart="120.00" departLane="1" departPos="34.30" departSpeed="max" arrivalLane="0" arrivalPos="103.16">
        <route edges="edge0 edge1"/>
    </vehicle>
    <vehicle id="-flow-random-route-0b397efe-b76b-493a-9672-de8135f7ee62-454617684582866010-13-0.1" type="actor-car-5042580840728172221" depart="120.00" departLane="2" departPos="102.99" departSpeed="max" arrivalLane="1" arrivalPos="17.41">
        <route edges="edge1 edge0"/>
    </vehicle>
    <vehicle id="-flow-random-route-0b5ed625-6a6a-4d83-a3ba-ca9ff708aa12-454617684582866010-8-0.1" type="actor-car-5042580840728172221" depart="120.00" departLane="2" departPos="270.85" departSpeed="max" arrivalLane="2" arrivalPos="18.83">
        <route edges="edge1 edge0"/>
    </vehicle>
    <vehicle id="-flow-random-route-1627869b-ec71-4eb8-9781-f0b728042c73-454617684582866010-25-0.1" type="actor-car-5042580840728172221" depart="120.00" departLane="0" departPos="49.52" departSpeed="max" arrivalLane="2" arrivalPos="29.81">
        <route edges="edge0 edge1"/>
    </vehicle>
    <vehicle id="-flow-random-route-21bc4393-dc45-4c84-8f24-51f845a2fd68-454617684582866010-2-0.1" type="actor-car-5042580840728172221" depart="120.00" departLane="1" departPos="149.23" departSpeed="max" arrivalLane="0" arrivalPos="19.06">
        <route edges="edge1 edge0"/>
    </vehicle>
    <vehicle id="-flow-random-route-27bf624c-96a4-4ea5-b048-b4c48d880c5f-454617684582866010-21-0.1" type="actor-car-5042580840728172221" depart="120.00" departLane="2" departPos="479.09" departSpeed="max" arrivalLane="0" arrivalPos="63.38">
        <route edges="edge1 edge0"/>
    </vehicle>
    <vehicle id="-flow-random-route-2dddd652-c1a5-4247-84c4-2a644c69d254-454617684582866010-9-0.1" type="actor-car-5042580840728172221" depart="120.00" departLane="1" departPos="59.61" departSpeed="max" arrivalLane="2" arrivalPos="62.24">
        <route edges="edge0 edge1"/>
    </vehicle>
    <vehicle id="-flow-random-route-30496add-d911-43c2-a1c3-ac7ca904aa28-454617684582866010-16-0.1" type="actor-car-5042580840728172221" depart="120.00" departLane="1" departPos="178.30" departSpeed="max" arrivalLane="0" arrivalPos="76.86">
        <route edges="edge1 edge0"/>
    </vehicle>
    <vehicle id="-flow-random-route-43686511-1754-49b3-899d-b708e6fde148-454617684582866010-7-0.1" type="actor-car-5042580840728172221" depart="120.00" departLane="1" departPos="58.62" departSpeed="max" arrivalLane="2" arrivalPos="21.05">
        <route edges="edge1 edge0"/>
    </vehicle>
    <vehicle id="-flow-random-route-450dafe2-4d98-4c97-8adc-bd71ab58c282-454617684582866010-0-0.1" type="actor-car-5042580840728172221" depart="120.00" departLane="1" departPos="18.71" departSpeed="max" arrivalLane="2" arrivalPos="253.27">
        <route edges="edge0 edge1"/>
    </vehicle>
    <vehicle id="-flow-random-route-48626c53-8d41-4a9a-8bdf-dc658b8b4cb7-454617684582866010-11-0.1" type="actor-car-5042580840728172221" depart="120.00" departLane="0" departPos="247.10" departSpeed="max" arrivalLane="0" arrivalPos="47.99">
        <route edges="edge1 edge0"/>
    </vehicle>
    <vehicle id="-flow-random-route-4f9440d4-d4d2-46e1-b34b-5f01d6aa00f6-454617684582866010-5-0.1" type="actor-car-5042580840728172221" depart="120.00" departLane="2" departPos="65.15" departSpeed="max" arrivalLane="2" arrivalPos="446.25">
        <route edges="edge0 edge1"/>
    </vehicle>
    <vehicle id="-flow-random-route-569fdd41-2e24-482b-8e09-74aa571dcb75-454617684582866010-14-0.1" type="actor-car-5042580840728172221" depart="120.00" departLane="1" departPos="216.02" departSpeed="max" arrivalLane="2" arrivalPos="18.27">
        <route edges="edge1 edge0"/>
    </vehicle>
    <vehicle id="-flow-random-route-56b135ac-75d8-46b8-acdc-cf3f44a5bdb7-454617684582866010-17-0.1" type="actor-car-5042580840728172221" depart="120.00" departLane="1" departPos="117.08" departSpeed="max" arrivalLane="0" arrivalPos="75.07">
        <route edges="edge1 edge0"/>
    </vehicle>
    <vehicle id="-flow-random-route-642a33a8-210d-448b-bc8f-2966ebe4f064-454617684582866010-1-0.1" type="actor-car-5042580840728172221" depart="120.00" departLane="2" departPos="85.17" departSpeed="max" arrivalLane="2" arrivalPos="122.93">
        <route edges="edge0 edge1"/>
    </vehicle>
    <vehicle id="-flow-random-route-6f2c2e8e-8e21-4cf9-98ac-34b39ecc1d1c-454617684582866010-23-0.1" type="actor-car-5042580840728172221" depart="120.00" departLane="0" departPos="23.82" departSpeed="max" arrivalLane="0" arrivalPos="427.60">
        <route edges="edge0 edge1"/>
    </vehicle>
    <vehicle id="-flow-random-route-882c06bc-5f61-4a1f-afa7-045a0c5ba924-454617684582866010-10-0.1" type="actor-car-5042580840728172221" depart="120.00" departLane="0" departPos="62.98" departSpeed="max" arrivalLane="1" arrivalPos="382.56">
        <route edges="edge0 edge1"/>
    </vehicle>
    <vehicle id="-flow-random-route-8cdeb023-a2c5-4c73-ba1c-7fa972a707dd-454617684582866010-24-0.1" type="actor-car-5042580840728172221" depart="120.00" departLane="1" departPos="15.27" departSpeed="max" arrivalLane="1" arrivalPos="18.71">
        <route edges="edge0 edge1"/>
    </vehicle>
    <vehicle id="-flow-random-route-92aff243-c077-4416-a33d-8e766982d80e-454617684582866010-27-0.1" type="actor-car-5042580840728172221" depart="120.00" departLane="2" departPos="452.58" departSpeed="max" arrivalLane="2" arrivalPos="58.73">
        <route edges="edge1 edge0"/>
    </vehicle>
    <vehicle id="-flow-random-route-92c1d20d-5c93-4c69-b4f8-84c898689e72-454617684582866010-12-0.1" type="actor-car-5042580840728172221" depart="120.00" departLane="2" departPos="11.31" departSpeed="max" arrivalLane="2" arrivalPos="281.75">
        <route edges="edge0 edge1"/>
    </vehicle>
    <vehicle id="-flow-random-route-b27f70d0-2157-4323-a3f0-2793048159e8-454617684582866010-20-0.1" type="actor-car-5042580840728172221" depart="120.00" departLane="1" departPos="24.37" departSpeed="max" arrivalLane="1" arrivalPos="407.68">
        <route edges="edge0 edge1"/>
    </vehicle>
    <vehicle id="-flow-random-route-b7b8b48a-1d56-4e91-8ce3-70c638653229-454617684582866010-4-0.1" type="actor-car-5042580840728172221" depart="120.00" departLane="2" departPos="195.29" departSpeed="max" arrivalLane="0" arrivalPos="85.27">
        <route edges="edge1 edge0"/>
    </vehicle>
    <vehicle id="-flow-random-route-bb296294-6090-4961-b18e-6a0fe939459e-454617684582866010-26-0.1" type="actor-car-5042580840728172221" depart="120.00" departLane="2" departPos="4.63" departSpeed="max" arrivalLane="2" arrivalPos="481.23">
        <route edges="edge0 edge1"/>
    </vehicle>
    <vehicle id="-flow-random-route-c045dbb0-adff-4670-b0de-94fe733e797e-454617684582866010-18-0.1" type="actor-car-5042580840728172221" depart="120.00" departLane="1" departPos="49.98" departSpeed="max" arrivalLane="1" arrivalPos="8.27">
        <route edges="edge1 edge0"/>
    </vehicle>
    <vehicle id="-flow-random-route-e0cbbd24-42c1-4543-a4bf-0646964cc559-454617684582866010-19-0.1" type="actor-car-5042580840728172221" depart="120.00" departLane="0" departPos="22.60" departSpeed="max" arrivalLane="1" arrivalPos="52.26">
        <route edges="edge1 edge0"/>
    </vehicle>
    <vehicle id="-flow-random-route-e7bc7040-e9aa-42f4-b4b6-1c23f1caaeb4-454617684582866010-22-0.1" type="actor-car-5042580840728172221" depart="120.00" departLane="0" departPos="323.34" departSpeed="max" arrivalLane="1" arrivalPos="84.24">
        <route edges="edge1 edge0"/>
    </vehicle>
    <vehicle id="-flow-random-route-ebb77753-d843-4941-96e4-1c57cbd1d1ed-454617684582866010-28-0.1" type="actor-car-5042580840728172221" depart="120.00" departLane="2" departPos="80.08" departSpeed="max" arrivalLane="2" arrivalPos="34.91">
        <route edges="edge0 edge1"/>
    </vehicle>
    <vehicle id="-flow-random-route-ef051fc0-c399-4d8e-822a-49dde10757f4-454617684582866010-6-0.1" type="actor-car-5042580840728172221" depart="120.00" departLane="2" departPos="55.19" departSpeed="max" arrivalLane="1" arrivalPos="154.60">
        <route edges="edge0 edge1"/>
    </vehicle>
    <vehicle id="-flow-random-route-fb6101c6-aaf1-4a74-8097-760acf751d39-454617684582866010-3-0.1" type="actor-car-5042580840728172221" depart="120.00" departLane="2" departPos="64.58" departSpeed="max" arrivalLane="2" arrivalPos="98.36">
        <route edges="edge0 edge1"/>
    </vehicle>
    <vehicle id="-flow-random-route-02bb1d4b-dc95-4a97-a3c1-fe649b43d1ca-454617684582866010-15-0.2" type="actor-car-5042580840728172221" depart="240.00" departLane="0" departPos="73.93" departSpeed="max" arrivalLane="0" arrivalPos="80.50">
        <route edges="edge0 edge1"/>
    </vehicle>
    <vehicle id="-flow-random-route-08de553e-1d7b-4e45-b751-e8739b2b4019-454617684582866010-29-0.2" type="actor-car-5042580840728172221" depart="240.00" departLane="1" departPos="34.30" departSpeed="max" arrivalLane="0" arrivalPos="103.16">
        <route edges="edge0 edge1"/>
    </vehicle>
    <vehicle id="-flow-random-route-0b397efe-b76b-493a-9672-de8135f7ee62-454617684582866010-13-0.2" type="actor-car-5042580840728172221" depart="240.00" departLane="2" departPos="102.99" departSpeed="max" arrivalLane="1" arrivalPos="17.41">
        <route edges="edge1 edge0"/>
    </vehicle>
    <vehicle id="-flow-random-route-0b5ed625-6a6a-4d83-a3ba-ca9ff708aa12-454617684582866010-8-0.2" type="actor-car-5042580840728172221" depart="240.00" departLane="2" departPos="270.85" departSpeed="max" arrivalLane="2" arrivalPos="18.83">
        <route edges="edge1 edge0"/>
    </vehicle>
    <vehicle id="-flow-random-route-1627869b-ec71-4eb8-9781-f0b728042c73-454617684582866010-25-0.2" type="actor-car-5042580840728172221" depart="240.00" departLane="0" departPos="49.52" departSpeed="max" arrivalLane="2" arrivalPos="29.81">
        <route edges="edge0 edge1"/>
    </vehicle>
    <vehicle id="-flow-random-route-21bc4393-dc45-4c84-8f24-51f845a2fd68-454617684582866010-2-0.2" type="actor-car-5042580840728172221" depart="240.00" departLane="1" departPos="149.23" departSpeed="max" arrivalLane="0" arrivalPos="19.06">
        <route edges="edge1 edge0"/>
    </vehicle>
    <vehicle id="-flow-random-route-27bf624c-96a4-4ea5-b048-b4c48d880c5f-454617684582866010-21-0.2" type="actor-car-5042580840728172221" depart="240.00" departLane="2" departPos="479.09" departSpeed="max" arrivalLane="0" arrivalPos="63.38">
        <route edges="edge1 edge0"/>
    </vehicle>
    <vehicle id="-flow-random-route-2dddd652-c1a5-4247-84c4-2a644c69d254-454617684582866010-9-0.2" type="actor-car-5042580840728172221" depart="240.00" departLane="1" departPos="59.61" departSpeed="max" arrivalLane="2" arrivalPos="62.24">
        <route edges="edge0 edge1"/>
    </vehicle>
    <vehicle id="-flow-random-route-30496add-d911-43c2-a1c3-ac7ca904aa28-454617684582866010-16-0.2" type="actor-car-5042580840728172221" depart="240.00" departLane="1" departPos="178.30" departSpeed="max" arrivalLane="0" arrivalPos="76.86">
        <route edges="edge1 edge0"/>
    </vehicle>
    <vehicle id="-flow-random-route-43686511-1754-49b3-899d-b708e6fde148-454617684582866010-7-0.2" type="actor-car-5042580840728172221" depart="240.00" departLane="1" departPos="58.62" departSpeed="max" arrivalLane="2" arrivalPos="21.05">
        <route edges="edge1 edge0"/>
    </vehicle>
    <vehicle id="-flow-random-route-450dafe2-4d98-4c97-8adc-bd71ab58c282-454617684582866010-0-0.2" type="actor-car-5042580840728172221" depart="240.00" departLane="1" departPos="18.71" departSpeed="max" arrivalLane="2" arrivalPos="253.27">
        <route edges="edge0 edge1"/>
    </vehicle>
    <vehicle id="-flow-random-route-48626c53-8d41-4a9a-8bdf-dc658b8b4cb7-454617684582866010-11-0.2" type="actor-car-5042580840728172221" depart="240.00" departLane="0" departPos="247.10" departSpeed="max" arrivalLane="0" arrivalPos="47.99">
        <route edges="edge1 edge0"/>
    </vehicle>
    <vehicle id="-flow-random-route-4f9440d4-d4d2-46e1-b34b-5f01d6aa00f6-454617684582866010-5-0.2" type="actor-car-5042580840728172221" depart="240.00" departLane="2" departPos="65.15" departSpeed="max" arrivalLane="2" arrivalPos="446.25">
        <route edges="edge0 edge1"/>
    </vehicle>
    <vehicle id="-flow-random-route-569fdd41-2e24-482b-8e09-74aa571dcb75-454617684582866010-14-0.2" type="actor-car-5042580840728172221" depart="240.00" departLane="1" departPos="216.02" departSpeed="max" arrivalLane="2" arrivalPos="18.27">
        <route edges="edge1 edge0"/>
    </vehicle>
    <vehicle id="-flow-random-route-56b135ac-75d8-46b8-acdc-cf3f44a5bdb7-454617684582866010-17-0.2" type="actor-car-5042580840728172221" depart="240.00" departLane="1" departPos="117.08" departSpeed="max" arrivalLane="0" arrivalPos="75.07">
        <route edges="edge1 edge0"/>
    </vehicle>
    <vehicle id="-flow-random-route-642a33a8-210d-448b-bc8f-2966ebe4f064-454617684582866010-1-0.2" type="actor-car-5042580840728172221" depart="240.00" departLane="2" departPos="85.17" departSpeed="max" arrivalLane="2" arrivalPos="122.93">
        <route edges="edge0 edge1"/>
    </vehicle>
    <vehicle id="-flow-random-route-6f2c2e8e-8e21-4cf9-98ac-34b39ecc1d1c-454617684582866010-23-0.2" type="actor-car-5042580840728172221" depart="240.00" departLane="0" departPos="23.82" departSpeed="max" arrivalLane="0" arrivalPos="427.60">
        <route edges="edge0 edge1"/>
    </vehicle>
    <vehicle id="-flow-random-route-882c06bc-5f61-4a1f-afa7-045a0c5ba924-454617684582866010-10-0.2" type="actor-car-5042580840728172221" depart="240.00" departLane="0" departPos="62.98" departSpeed="max" arrivalLane="1" arrivalPos="382.56">
        <route edges="edge0 edge1"/>
    </vehicle>
    <vehicle id="-flow-random-route-8cdeb023-a2c5-4c73-ba1c-7fa972a707dd-454617684582866010-24-0.2" type="actor-car-5042580840728172221" depart="240.00" departLane="1" departPos="15.27" departSpeed="max" arrivalLane="1" arrivalPos="18.71">
        <route edges="edge0 edge1"/>
    </vehicle>
    <vehicle id="-flow-random-route-92aff243-c077-4416-a33d-8e766982d80e-454617684582866010-27-0.2" type="actor-car-5042580840728172221" depart="240.00" departLane="2" departPos="452.58" departSpeed="max" arrivalLane="2" arrivalPos="58.73">
        <route edges="edge1 edge0"/>
    </vehicle>
    <vehicle id="-flow-random-route-92c1d20d-5c93-4c69-b4f8-84c898689e72-454617684582866010-12-0.2" type="actor-car-5042580840728172221" depart="240.00" departLane="2" departPos="11.31" departSpeed="max" arrivalLane="2" arrivalPos="281.75">
        <route edges="edge0 edge1"/>
    </vehicle>
    <vehicle id="-flow-random-route-b27f70d0-2157-4323-a3f0-2793048159e8-454617684582866010-20-0.2" type="actor-car-5042580840728172221" depart="240.00" departLane="1" departPos="24.37" departSpeed="max" arrivalLane="1" arrivalPos="407.68">
        <route edges="edge0 edge1"/>
    </vehicle>
    <vehicle id="-flow-random-route-b7b8b48a-1d56-4e91-8ce3-70c638653229-454617684582866010-4-0.2" type="actor-car-5042580840728172221" depart="240.00" departLane="2" departPos="195.29" departSpeed="max" arrivalLane="0" arrivalPos="85.27">
        <route edges="edge1 edge0"/>
    </vehicle>
    <vehicle id="-flow-random-route-bb296294-6090-4961-b18e-6a0fe939459e-454617684582866010-26-0.2" type="actor-car-5042580840728172221" depart="240.00" departLane="2" departPos="4.63" departSpeed="max" arrivalLane="2" arrivalPos="481.23">
        <route edges="edge0 edge1"/>
    </vehicle>
    <vehicle id="-flow-random-route-c045dbb0-adff-4670-b0de-94fe733e797e-454617684582866010-18-0.2" type="actor-car-5042580840728172221" depart="240.00" departLane="1" departPos="49.98" departSpeed="max" arrivalLane="1" arrivalPos="8.27">
        <route edges="edge1 edge0"/>
    </vehicle>
    <vehicle id="-flow-random-route-e0cbbd24-42c1-4543-a4bf-0646964cc559-454617684582866010-19-0.2" type="actor-car-5042580840728172221" depart="240.00" departLane="0" departPos="22.60" departSpeed="max" arrivalLane="1" arrivalPos="52.26">
        <route edges="edge1 edge0"/>
    </vehicle>
    <vehicle id="-flow-random-route-e7bc7040-e9aa-42f4-b4b6-1c23f1caaeb4-454617684582866010-22-0.2" type="actor-car-5042580840728172221" depart="240.00" departLane="0" departPos="323.34" departSpeed="max" arrivalLane="1" arrivalPos="84.24">
        <route edges="edge1 edge0"/>
    </vehicle>
    <vehicle id="-flow-random-route-ebb77753-d843-4941-96e4-1c57cbd1d1ed-454617684582866010-28-0.2" type="actor-car-5042580840728172221" depart="240.00" departLane="2" departPos="80.08" departSpeed="max" arrivalLane="2" arrivalPos="34.91">
        <route edges="edge0 edge1"/>
    </vehicle>
    <vehicle id="-flow-random-route-ef051fc0-c399-4d8e-822a-49dde10757f4-454617684582866010-6-0.2" type="actor-car-5042580840728172221" depart="240.00" departLane="2" departPos="55.19" departSpeed="max" arrivalLane="1" arrivalPos="154.60">
        <route edges="edge0 edge1"/>
    </vehicle>
    <vehicle id="-flow-random-route-fb6101c6-aaf1-4a74-8097-760acf751d39-454617684582866010-3-0.2" type="actor-car-5042580840728172221" depart="240.00" departLane="2" departPos="64.58" departSpeed="max" arrivalLane="2" arrivalPos="98.36">
        <route edges="edge0 edge1"/>
    </vehicle>
    <vehicle id="-flow-random-route-02bb1d4b-dc95-4a97-a3c1-fe649b43d1ca-454617684582866010-15-0.3" type="actor-car-5042580840728172221" depart="360.00" departLane="0" departPos="73.93" departSpeed="max" arrivalLane="0" arrivalPos="80.50">
        <route edges="edge0 edge1"/>
    </vehicle>
    <vehicle id="-flow-random-route-08de553e-1d7b-4e45-b751-e8739b2b4019-454617684582866010-29-0.3" type="actor-car-5042580840728172221" depart="360.00" departLane="1" departPos="34.30" departSpeed="max" arrivalLane="0" arrivalPos="103.16">
        <route edges="edge0 edge1"/>
    </vehicle>
    <vehicle id="-flow-random-route-0b397efe-b76b-493a-9672-de8135f7ee62-454617684582866010-13-0.3" type="actor-car-5042580840728172221" depart="360.00" departLane="2" departPos="102.99" departSpeed="max" arrivalLane="1" arrivalPos="17.41">
        <route edges="edge1 edge0"/>
    </vehicle>
    <vehicle id="-flow-random-route-0b5ed625-6a6a-4d83-a3ba-ca9ff708aa12-454617684582866010-8-0.3" type="actor-car-5042580840728172221" depart="360.00" departLane="2" departPos="270.85" departSpeed="max" arrivalLane="2" arrivalPos="18.83">
        <route edges="edge1 edge0"/>
    </vehicle>
    <vehicle id="-flow-random-route-1627869b-ec71-4eb8-9781-f0b728042c73-454617684582866010-25-0.3" type="actor-car-5042580840728172221" depart="360.00" departLane="0" departPos="49.52" departSpeed="max" arrivalLane="2" arrivalPos="29.81">
        <route edges="edge0 edge1"/>
    </vehicle>
    <vehicle id="-flow-random-route-21bc4393-dc45-4c84-8f24-51f845a2fd68-454617684582866010-2-0.3" type="actor-car-5042580840728172221" depart="360.00" departLane="1" departPos="149.23" departSpeed="max" arrivalLane="0" arrivalPos="19.06">
        <route edges="edge1 edge0"/>
    </vehicle>
    <vehicle id="-flow-random-route-27bf624c-96a4-4ea5-b048-b4c48d880c5f-454617684582866010-21-0.3" type="actor-car-5042580840728172221" depart="360.00" departLane="2" departPos="479.09" departSpeed="max" arrivalLane="0" arrivalPos="63.38">
        <route edges="edge1 edge0"/>
    </vehicle>
    <vehicle id="-flow-random-route-2dddd652-c1a5-4247-84c4-2a644c69d254-454617684582866010-9-0.3" type="actor-car-5042580840728172221" depart="360.00" departLane="1" departPos="59.61" departSpeed="max" arrivalLane="2" arrivalPos="62.24">
        <route edges="edge0 edge1"/>