<?xml version="1.0" encoding="UTF-8"?>

<!-- generated on Sun Aug 16 11:47:19 2020 by Eclipse SUMO duarouter Version 1.6.0
<configuration xmlns:xsi="http://www.w3.org/2001/XMLSchema-instance" xsi:noNamespaceSchemaLocation="http://sumo.dlr.de/xsd/duarouterConfiguration.xsd">

    <input>
        <net-file value="dataset_public/intersection_loop/its_a/map.net.xml"/>
        <route-files value="/tmp/tmpwmxys8mq/trips.trips.xml"/>
    </input>

    <output>
        <output-file value="dataset_public/intersection_loop/its_a/traffic/30_patient_car.rou.xml"/>
        <alternatives-output value="dataset_public/intersection_loop/its_a/traffic/30_patient_car.rou.alt.xml"/>
    </output>

    <processing>
        <unsorted-input value="true"/>
        <repair value="true"/>
    </processing>

    <report>
        <error-log value="/tmp/smarts/_duarouter_routing/traffic/30_patient_car.log"/>
        <no-step-log value="true"/>
    </report>

    <random_number>
        <seed value="42"/>
    </random_number>

</configuration>
-->

<routes xmlns:xsi="http://www.w3.org/2001/XMLSchema-instance" xsi:noNamespaceSchemaLocation="http://sumo.dlr.de/xsd/routes_file.xsd">
    <vType id="actor-car-8509768798257635014" minGap="2.50" speedFactor="normc(0.50,0.20,0.20,2.00)" vClass="passenger" impatience="0.50" lcCooperative="0.5" lcImpatience="0" jmDriveAfterYellowTime="1.0" accel="2.6" decel="4.5" sigma="0.5"/>
    <vehicle id="-flow-random-route-0169d403-bc52-43f1-a38c-e61ccf164904-6885197339053045179-23-0.0" type="actor-car-8509768798257635014" depart="0.00" departLane="0" departPos="35.79" departSpeed="max" arrivalLane="0" arrivalPos="61.44">
        <route edges="-gneE15 -gneE14 -gneE13 -gneE11 gneE12"/>
    </vehicle>
    <vehicle id="-flow-random-route-1ae86092-1f90-431b-835f-829d839469e7-6885197339053045179-2-0.0" type="actor-car-8509768798257635014" depart="0.00" departLane="0" departPos="22.06" departSpeed="max" arrivalLane="0" arrivalPos="73.89">
        <route edges="-gneE14 -gneE13 -gneE11 gneE12 gneE8 gneE9 gneE2 gneE11 gneE13 gneE14"/>
    </vehicle>
    <vehicle id="-flow-random-route-1d824d78-77e0-4c61-8417-c43483eadf67-6885197339053045179-27-0.0" type="actor-car-8509768798257635014" depart="0.00" departLane="0" departPos="68.23" departSpeed="max" arrivalLane="0" arrivalPos="4.65">
        <route edges="gneE12 gneE8 gneE9"/>
    </vehicle>
    <vehicle id="-flow-random-route-2083e8cf-9e59-467f-ad0b-2eb37f593f51-6885197339053045179-6-0.0" type="actor-car-8509768798257635014" depart="0.00" departLane="0" departPos="10.47" departSpeed="max" arrivalLane="0" arrivalPos="77.88">
        <route edges="-gneE11 gneE12 gneE8 gneE9 gneE2 gneE11 gneE13 gneE14 gneE15 -gneE12"/>
    </vehicle>
    <vehicle id="-flow-random-route-32db3e1e-bfb9-4036-a3ba-c2dfa822b2cf-6885197339053045179-9-0.0" type="actor-car-8509768798257635014" depart="0.00" departLane="0" departPos="102.33" departSpeed="max" arrivalLane="0" arrivalPos="23.88">
        <route edges="gneE14 gneE15 -gneE12 gneE11 gneE13 gneE14 gneE15 gneE8 gneE9 gneE2"/>
    </vehicle>
    <vehicle id="-flow-random-route-38bed0b1-cb50-4416-ba7b-460acb7c01d5-6885197339053045179-19-0.0" type="actor-car-8509768798257635014" depart="0.00" departLane="0" departPos="41.26" departSpeed="max" arrivalLane="0" arrivalPos="18.03">
        <route edges="gneE2 gneE12 -gneE15 -gneE14 -gneE13"/>
    </vehicle>
    <vehicle id="-flow-random-route-3a16e695-2d6b-4971-83c9-b9c908b20533-6885197339053045179-12-0.0" type="actor-car-8509768798257635014" depart="0.00" departLane="0" departPos="45.47" departSpeed="max" arrivalLane="0" arrivalPos="62.53">
        <route edges="gneE12 -gneE15 -gneE14 -gneE13 -gneE11 gneE12"/>
    </vehicle>
    <vehicle id="-flow-random-route-3aa2d0d8-af69-4312-b416-beda19f92517-6885197339053045179-3-0.0" type="actor-car-8509768798257635014" depart="0.00" departLane="0" departPos="6.12" departSpeed="max" arrivalLane="0" arrivalPos="54.03">
        <route edges="gneE15 -gneE12 gneE11 gneE13 gneE14 gneE15 gneE8 gneE9 gneE2 gneE12"/>
    </vehicle>
    <vehicle id="-flow-random-route-3b10f19e-9840-4168-97ee-7dea3947f6a4-6885197339053045179-24-0.0" type="actor-car-8509768798257635014" depart="0.00" departLane="0" departPos="36.07" departSpeed="max" arrivalLane="0" arrivalPos="26.35">
        <route edges="gneE12 gneE8 gneE9 gneE2 gneE12"/>
    </vehicle>
    <vehicle id="-flow-random-route-4299b49c-077c-4aa3-b25d-61b18b2cce9b-6885197339053045179-21-0.0" type="actor-car-8509768798257635014" depart="0.00" departLane="0" departPos="2.57" departSpeed="max" arrivalLane="0" arrivalPos="93.48">
        <route edges="gneE14 gneE15 -gneE12 gneE11 gneE13"/>
    </vehicle>
    <vehicle id="-flow-random-route-459d495a-447c-41b5-935a-b09304b589c4-6885197339053045179-14-0.0" type="actor-car-8509768798257635014" depart="0.00" departLane="0" departPos="56.02" departSpeed="max" arrivalLane="1" arrivalPos="4.81">
        <route edges="gneE8 gneE9 gneE2"/>
    </vehicle>
    <vehicle id="-flow-random-route-4763e96f-8f8a-4c55-b655-78d99f4a2653-6885197339053045179-1-0.0" type="actor-car-8509768798257635014" depart="0.00" departLane="0" departPos="77.55" departSpeed="max" arrivalLane="0" arrivalPos="39.51">
        <route edges="-gneE14 -gneE13 -gneE11 gneE12 -gneE15"/>
    </vehicle>
    <vehicle id="-flow-random-route-4d0bd5f1-8325-4d42-a67b-f9a038c2f4fd-6885197339053045179-22-0.0" type="actor-car-8509768798257635014" depart="0.00" departLane="1" departPos="40.85" departSpeed="max" arrivalLane="0" arrivalPos="30.50">
        <route edges="gneE9 gneE2 gneE11"/>
    </vehicle>
    <vehicle id="-flow-random-route-633de160-79bd-4599-93fa-f0011fed3c61-6885197339053045179-7-0.0" type="actor-car-8509768798257635014" depart="0.00" departLane="0" departPos="29.29" departSpeed="max" arrivalLane="0" arrivalPos="49.45">
        <route edges="gneE13 gneE14 gneE15 -gneE12 gneE11"/>
    </vehicle>
    <vehicle id="-flow-random-route-69b4e0cc-a3ee-40c4-b33a-d1a089178c4a-6885197339053045179-13-0.0" type="actor-car-8509768798257635014" depart="0.00" departLane="0" departPos="0.85" departSpeed="max" arrivalLane="0" arrivalPos="27.06">
        <route edges="gneE12 -gneE15 -gneE14 -gneE13 -gneE11 gneE12"/>
    </vehicle>
    <vehicle id="-flow-random-route-6d189118-abbd-4cf1-89e7-fa51123eca70-6885197339053045179-26-0.0" type="actor-car-8509768798257635014" depart="0.00" departLane="0" departPos="25.52" departSpeed="max" arrivalLane="0" arrivalPos="32.84">
        <route edges="-gneE15 -gneE14 -gneE13 -gneE11 gneE12 gneE8"/>
    </vehicle>
    <vehicle id="-flow-random-route-6dac5065-a9ee-42f1-8081-72d4b151a743-6885197339053045179-17-0.0" type="actor-car-8509768798257635014" depart="0.00" departLane="0" departPos="97.81" departSpeed="max" arrivalLane="0" arrivalPos="75.07">
        <route edges="-gneE14 -gneE13 -gneE11 gneE12 gneE8 gneE9 gneE2 gneE11 gneE13 gneE14"/>
    </vehicle>
    <vehicle id="-flow-random-route-821572c7-e716-4573-a9ec-fdb91371a6d3-6885197339053045179-4-0.0" type="actor-car-8509768798257635014" depart="0.00" departLane="0" departPos="29.97" departSpeed="max" arrivalLane="0" arrivalPos="7.56">
        <route edges="gneE2 gneE11 gneE13 gneE14 gneE15"/>
    </vehicle>
    <vehicle id="-flow-random-route-9419c5b3-a346-452f-885a-4ea227e0cbd0-6885197339053045179-29-0.0" type="actor-car-8509768798257635014" depart="0.00" departLane="0" departPos="48.96" departSpeed="max" arrivalLane="1" arrivalPos="39.54">
        <route edges="-gneE14 -gneE13 -gneE11 gneE12 -gneE15 -gneE14 -gneE13 -gneE11 gneE12 gneE8"/>
    </vehicle>
    <vehicle id="-flow-random-route-9a2d7a49-e364-4bb5-97cc-7553bb8d2e95-6885197339053045179-11-0.0" type="actor-car-8509768798257635014" depart="0.00" departLane="0" departPos="88.28" departSpeed="max" arrivalLane="0" arrivalPos="85.30">
        <route edges="-gneE12 gneE11 gneE13"/>
    </vehicle>
    <vehicle id="-flow-random-route-9bddf391-c146-4ef6-be67-76c7929afdf6-6885197339053045179-16-0.0" type="actor-car-8509768798257635014" depart="0.00" departLane="1" departPos="52.50" departSpeed="max" arrivalLane="0" arrivalPos="47.39">
        <route edges="gneE8 gneE9 gneE2 gneE12 gneE8 gneE9 gneE2 gneE11 gneE13 gneE14"/>
    </vehicle>
    <vehicle id="-flow-random-route-a73029a3-02da-4183-bc95-01dfbedd149e-6885197339053045179-10-0.0" type="actor-car-8509768798257635014" depart="0.00" departLane="0" departPos="103.85" departSpeed="max" arrivalLane="0" arrivalPos="11.20">
        <route edges="-gneE12 gneE11 gneE13 gneE14 gneE15"/>
    </vehicle>
    <vehicle id="-flow-random-route-ac4d31d0-a110-474d-91d3-d9532fd3a76b-6885197339053045179-15-0.0" type="actor-car-8509768798257635014" depart="0.00" departLane="0" departPos="31.59" departSpeed="max" arrivalLane="0" arrivalPos="42.51">
        <route edges="gneE15 -gneE12 gneE11 gneE13 gneE14"/>
    </vehicle>
    <vehicle id="-flow-random-route-c4d008ff-bb89-4777-bdef-604b55540fd9-6885197339053045179-25-0.0" type="actor-car-8509768798257635014" depart="0.00" departLane="0" departPos="63.68" departSpeed="max" arrivalLane="0" arrivalPos="19.34">
        <route edges="gneE14 gneE15 -gneE12 gneE11 gneE13"/>
    </vehicle>
    <vehicle id="-flow-random-route-cfebe1cc-fb46-49bc-86c2-b5011dabd1df-6885197339053045179-20-0.0" type="actor-car-8509768798257635014" depart="0.00" departLane="0" departPos="22.44" departSpeed="max" arrivalLane="0" arrivalPos="114.48">
        <route edges="gneE12 gneE8 gneE9 gneE2 gneE12"/>
    </vehicle>
    <vehicle id="-flow-random-route-d706cc37-7e60-4e19-94ce-1c9ebc7a1bf6-6885197339053045179-0-0.0" type="actor-car-8509768798257635014" depart="0.00" departLane="0" departPos="36.42" departSpeed="max" arrivalLane="0" arrivalPos="20.79">
        <route edges="gneE15 -gneE12 gneE11 gneE13 gneE14 gneE15 gneE8 gneE9 gneE2 gneE12"/>
    </vehicle>
    <vehicle id="-flow-random-route-decf746d-15c6-4647-82bc-f31413f72303-6885197339053045179-8-0.0" type="actor-car-8509768798257635014" depart="0.00" departLane="0" departPos="10.46" departSpeed="max" arrivalLane="0" arrivalPos="16.57">
        <route edges="gneE11 gneE13 gneE14 gneE15 -gneE12"/>
    </vehicle>
    <vehicle id="-flow-random-route-e086dbf4-6e5b-4254-83da-1f32de28be85-6885197339053045179-18-0.0" type="actor-car-8509768798257635014" depart="0.00" departLane="0" departPos="41.04" departSpeed="max" arrivalLane="1" arrivalPos="10.05">
        <route edges="-gneE13 -gneE11 gneE12 gneE8 gneE9 gneE2"/>
    </vehicle>
    <vehicle id="-flow-random-route-e3517b4f-b3db-430f-bc55-c1b3452e4756-6885197339053045179-5-0.0" type="actor-car-8509768798257635014" depart="0.00" departLane="0" departPos="37.51" departSpeed="max" arrivalLane="0" arrivalPos="44.48">
        <route edges="gneE9 gneE2 gneE12 -gneE15 -gneE14 -gneE13 -gneE11 gneE12 gneE8 gneE9"/>
    </vehicle>
    <vehicle id="-flow-random-route-fd5098ee-e69d-421d-b7bd-835df9bb2c51-6885197339053045179-28-0.0" type="actor-car-8509768798257635014" depart="0.00" departLane="0" departPos="38.66" departSpeed="max" arrivalLane="1" arrivalPos="23.48">
        <route edges="gneE2 gneE12 gneE8"/>
    </vehicle>
    <vehicle id="-flow-random-route-0169d403-bc52-43f1-a38c-e61ccf164904-6885197339053045179-23-0.1" type="actor-car-8509768798257635014" depart="120.00" departLane="0" departPos="35.79" departSpeed="max" arrivalLane="0" arrivalPos="61.44">
        <route edges="-gneE15 -gneE14 -gneE13 -gneE11 gneE12"/>
    </vehicle>
    <vehicle id="-flow-random-route-1ae86092-1f90-431b-835f-829d839469e7-6885197339053045179-2-0.1" type="actor-car-8509768798257635014" depart="120.00" departLane="0" departPos="22.06" departSpeed="max" arrivalLane="0" arrivalPos="73.89">
        <route edges="-gneE14 -gneE13 -gneE11 gneE12 gneE8 gneE9 gneE2 gneE11 gneE13 gneE14"/>
    </vehicle>
    <vehicle id="-flow-random-route-1d824d78-77e0-4c61-8417-c43483eadf67-6885197339053045179-27-0.1" type="actor-car-8509768798257635014" depart="120.00" departLane="0" departPos="68.23" departSpeed="max" arrivalLane="0" arrivalPos="4.65">
        <route edges="gneE12 gneE8 gneE9"/>
    </vehicle>
    <vehicle id="-flow-random-route-2083e8cf-9e59-467f-ad0b-2eb37f593f51-6885197339053045179-6-0.1" type="actor-car-8509768798257635014" depart="120.00" departLane="0" departPos="10.47" departSpeed="max" arrivalLane="0" arrivalPos="77.88">
        <route edges="-gneE11 gneE12 gneE8 gneE9 gneE2 gneE11 gneE13 gneE14 gneE15 -gneE12"/>
    </vehicle>
    <vehicle id="-flow-random-route-32db3e1e-bfb9-4036-a3ba-c2dfa822b2cf-6885197339053045179-9-0.1" type="actor-car-8509768798257635014" depart="120.00" departLane="0" departPos="102.33" departSpeed="max" arrivalLane="0" arrivalPos="23.88">
        <route edges="gneE14 gneE15 -gneE12 gneE11 gneE13 gneE14 gneE15 gneE8 gneE9 gneE2"/>
    </vehicle>
    <vehicle id="-flow-random-route-38bed0b1-cb50-4416-ba7b-460acb7c01d5-6885197339053045179-19-0.1" type="actor-car-8509768798257635014" depart="120.00" departLane="0" departPos="41.26" departSpeed="max" arrivalLane="0" arrivalPos="18.03">
        <route edges="gneE2 gneE12 -gneE15 -gneE14 -gneE13"/>
    </vehicle>
    <vehicle id="-flow-random-route-3a16e695-2d6b-4971-83c9-b9c908b20533-6885197339053045179-12-0.1" type="actor-car-8509768798257635014" depart="120.00" departLane="0" departPos="45.47" departSpeed="max" arrivalLane="0" arrivalPos="62.53">
        <route edges="gneE12 -gneE15 -gneE14 -gneE13 -gneE11 gneE12"/>
    </vehicle>
    <vehicle id="-flow-random-route-3aa2d0d8-af69-4312-b416-beda19f92517-6885197339053045179-3-0.1" type="actor-car-8509768798257635014" depart="120.00" departLane="0" departPos="6.12" departSpeed="max" arrivalLane="0" arrivalPos="54.03">
        <route edges="gneE15 -gneE12 gneE11 gneE13 gneE14 gneE15 gneE8 gneE9 gneE2 gneE12"/>
    </vehicle>
    <vehicle id="-flow-random-route-3b10f19e-9840-4168-97ee-7dea3947f6a4-6885197339053045179-24-0.1" type="actor-car-8509768798257635014" depart="120.00" departLane="0" departPos="36.07" departSpeed="max" arrivalLane="0" arrivalPos="26.35">
        <route edges="gneE12 gneE8 gneE9 gneE2 gneE12"/>
    </vehicle>
    <vehicle id="-flow-random-route-4299b49c-077c-4aa3-b25d-61b18b2cce9b-6885197339053045179-21-0.1" type="actor-car-8509768798257635014" depart="120.00" departLane="0" departPos="2.57" departSpeed="max" arrivalLane="0" arrivalPos="93.48">
        <route edges="gneE14 gneE15 -gneE12 gneE11 gneE13"/>
    </vehicle>
    <vehicle id="-flow-random-route-459d495a-447c-41b5-935a-b09304b589c4-6885197339053045179-14-0.1" type="actor-car-8509768798257635014" depart="120.00" departLane="0" departPos="56.02" departSpeed="max" arrivalLane="1" arrivalPos="4.81">
        <route edges="gneE8 gneE9 gneE2"/>
    </vehicle>
    <vehicle id="-flow-random-route-4763e96f-8f8a-4c55-b655-78d99f4a2653-6885197339053045179-1-0.1" type="actor-car-8509768798257635014" depart="120.00" departLane="0" departPos="77.55" departSpeed="max" arrivalLane="0" arrivalPos="39.51">
        <route edges="-gneE14 -gneE13 -gneE11 gneE12 -gneE15"/>
    </vehicle>
    <vehicle id="-flow-random-route-4d0bd5f1-8325-4d42-a67b-f9a038c2f4fd-6885197339053045179-22-0.1" type="actor-car-8509768798257635014" depart="120.00" departLane="1" departPos="40.85" departSpeed="max" arrivalLane="0" arrivalPos="30.50">
        <route edges="gneE9 gneE2 gneE11"/>
    </vehicle>
    <vehicle id="-flow-random-route-633de160-79bd-4599-93fa-f0011fed3c61-6885197339053045179-7-0.1" type="actor-car-8509768798257635014" depart="120.00" departLane="0" departPos="29.29" departSpeed="max" arrivalLane="0" arrivalPos="49.45">
        <route edges="gneE13 gneE14 gneE15 -gneE12 gneE11"/>
    </vehicle>
    <vehicle id="-flow-random-route-69b4e0cc-a3ee-40c4-b33a-d1a089178c4a-6885197339053045179-13-0.1" type="actor-car-8509768798257635014" depart="120.00" departLane="0" departPos="0.85" departSpeed="max" arrivalLane="0" arrivalPos="27.06">
        <route edges="gneE12 -gneE15 -gneE14 -gneE13 -gneE11 gneE12"/>
    </vehicle>
    <vehicle id="-flow-random-route-6d189118-abbd-4cf1-89e7-fa51123eca70-6885197339053045179-26-0.1" type="actor-car-8509768798257635014" depart="120.00" departLane="0" departPos="25.52" departSpeed="max" arrivalLane="0" arrivalPos="32.84">
        <route edges="-gneE15 -gneE14 -gneE13 -gneE11 gneE12 gneE8"/>
    </vehicle>
    <vehicle id="-flow-random-route-6dac5065-a9ee-42f1-8081-72d4b151a743-6885197339053045179-17-0.1" type="actor-car-8509768798257635014" depart="120.00" departLane="0" departPos="97.81" departSpeed="max" arrivalLane="0" arrivalPos="75.07">
        <route edges="-gneE14 -gneE13 -gneE11 gneE12 gneE8 gneE9 gneE2 gneE11 gneE13 gneE14"/>
    </vehicle>
    <vehicle id="-flow-random-route-821572c7-e716-4573-a9ec-fdb91371a6d3-6885197339053045179-4-0.1" type="actor-car-8509768798257635014" depart="120.00" departLane="0" departPos="29.97" departSpeed="max" arrivalLane="0" arrivalPos="7.56">
        <route edges="gneE2 gneE11 gneE13 gneE14 gneE15"/>
    </vehicle>
    <vehicle id="-flow-random-route-9419c5b3-a346-452f-885a-4ea227e0cbd0-6885197339053045179-29-0.1" type="actor-car-8509768798257635014" depart="120.00" departLane="0" departPos="48.96" departSpeed="max" arrivalLane="1" arrivalPos="39.54">
        <route edges="-gneE14 -gneE13 -gneE11 gneE12 -gneE15 -gneE14 -gneE13 -gneE11 gneE12 gneE8"/>
    </vehicle>
    <vehicle id="-flow-random-route-9a2d7a49-e364-4bb5-97cc-7553bb8d2e95-6885197339053045179-11-0.1" type="actor-car-8509768798257635014" depart="120.00" departLane="0" departPos="88.28" departSpeed="max" arrivalLane="0" arrivalPos="85.30">
        <route edges="-gneE12 gneE11 gneE13"/>
    </vehicle>
    <vehicle id="-flow-random-route-9bddf391-c146-4ef6-be67-76c7929afdf6-6885197339053045179-16-0.1" type="actor-car-8509768798257635014" depart="120.00" departLane="1" departPos="52.50" departSpeed="max" arrivalLane="0" arrivalPos="47.39">
        <route edges="gneE8 gneE9 gneE2 gneE12 gneE8 gneE9 gneE2 gneE11 gneE13 gneE14"/>
    </vehicle>
    <vehicle id="-flow-random-route-a73029a3-02da-4183-bc95-01dfbedd149e-6885197339053045179-10-0.1" type="actor-car-8509768798257635014" depart="120.00" departLane="0" departPos="103.85" departSpeed="max" arrivalLane="0" arrivalPos="11.20">
        <route edges="-gneE12 gneE11 gneE13 gneE14 gneE15"/>
    </vehicle>
    <vehicle id="-flow-random-route-ac4d31d0-a110-474d-91d3-d9532fd3a76b-6885197339053045179-15-0.1" type="actor-car-8509768798257635014" depart="120.00" departLane="0" departPos="31.59" departSpeed="max" arrivalLane="0" arrivalPos="42.51">
        <route edges="gneE15 -gneE12 gneE11 gneE13 gneE14"/>
    </vehicle>
    <vehicle id="-flow-random-route-c4d008ff-bb89-4777-bdef-604b55540fd9-6885197339053045179-25-0.1" type="actor-car-8509768798257635014" depart="120.00" departLane="0" departPos="63.68" departSpeed="max" arrivalLane="0" arrivalPos="19.34">
        <route edges="gneE14 gneE15 -gneE12 gneE11 gneE13"/>
    </vehicle>
    <vehicle id="-flow-random-route-cfebe1cc-fb46-49bc-86c2-b5011dabd1df-6885197339053045179-20-0.1" type="actor-car-8509768798257635014" depart="120.00" departLane="0" departPos="22.44" departSpeed="max" arrivalLane="0" arrivalPos="114.48">
        <route edges="gneE12 gneE8 gneE9 gneE2 gneE12"/>
    </vehicle>
    <vehicle id="-flow-random-route-d706cc37-7e60-4e19-94ce-1c9ebc7a1bf6-6885197339053045179-0-0.1" type="actor-car-8509768798257635014" depart="120.00" departLane="0" departPos="36.42" departSpeed="max" arrivalLane="0" arrivalPos="20.79">
        <route edges="gneE15 -gneE12 gneE11 gneE13 gneE14 gneE15 gneE8 gneE9 gneE2 gneE12"/>
    </vehicle>
    <vehicle id="-flow-random-route-decf746d-15c6-4647-82bc-f31413f72303-6885197339053045179-8-0.1" type="actor-car-8509768798257635014" depart="120.00" departLane="0" departPos="10.46" departSpeed="max" arrivalLane="0" arrivalPos="16.57">
        <route edges="gneE11 gneE13 gneE14 gneE15 -gneE12"/>
    </vehicle>
    <vehicle id="-flow-random-route-e086dbf4-6e5b-4254-83da-1f32de28be85-6885197339053045179-18-0.1" type="actor-car-8509768798257635014" depart="120.00" departLane="0" departPos="41.04" departSpeed="max" arrivalLane="1" arrivalPos="10.05">
        <route edges="-gneE13 -gneE11 gneE12 gneE8 gneE9 gneE2"/>
    </vehicle>
    <vehicle id="-flow-random-route-e3517b4f-b3db-430f-bc55-c1b3452e4756-6885197339053045179-5-0.1" type="actor-car-8509768798257635014" depart="120.00" departLane="0" departPos="37.51" departSpeed="max" arrivalLane="0" arrivalPos="44.48">
        <route edges="gneE9 gneE2 gneE12 -gneE15 -gneE14 -gneE13 -gneE11 gneE12 gneE8 gneE9"/>
    </vehicle>
    <vehicle id="-flow-random-route-fd5098ee-e69d-421d-b7bd-835df9bb2c51-6885197339053045179-28-0.1" type="actor-car-8509768798257635014" depart="120.00" departLane="0" departPos="38.66" departSpeed="max" arrivalLane="1" arrivalPos="23.48">
        <route edges="gneE2 gneE12 gneE8"/>
    </vehicle>
    <vehicle id="-flow-random-route-0169d403-bc52-43f1-a38c-e61ccf164904-6885197339053045179-23-0.2" type="actor-car-8509768798257635014" depart="240.00" departLane="0" departPos="35.79" departSpeed="max" arrivalLane="0" arrivalPos="61.44">
        <route edges="-gneE15 -gneE14 -gneE13 -gneE11 gneE12"/>
    </vehicle>
    <vehicle id="-flow-random-route-1ae86092-1f90-431b-835f-829d839469e7-6885197339053045179-2-0.2" type="actor-car-8509768798257635014" depart="240.00" departLane="0" departPos="22.06" departSpeed="max" arrivalLane="0" arrivalPos="73.89">
        <route edges="-gneE14 -gneE13 -gneE11 gneE12 gneE8 gneE9 gneE2 gneE11 gneE13 gneE14"/>
    </vehicle>
    <vehicle id="-flow-random-route-1d824d78-77e0-4c61-8417-c43483eadf67-6885197339053045179-27-0.2" type="actor-car-8509768798257635014" depart="240.00" departLane="0" departPos="68.23" departSpeed="max" arrivalLane="0" arrivalPos="4.65">
        <route edges="gneE12 gneE8 gneE9"/>
    </vehicle>
    <vehicle id="-flow-random-route-2083e8cf-9e59-467f-ad0b-2eb37f593f51-6885197339053045179-6-0.2" type="actor-car-8509768798257635014" depart="240.00" departLane="0" departPos="10.47" departSpeed="max" arrivalLane="0" arrivalPos="77.88">
        <route edges="-gneE11 gneE12 gneE8 gneE9 gneE2 gneE11 gneE13 gneE14 gneE15 -gneE12"/>
    </vehicle>
    <vehicle id="-flow-random-route-32db3e1e-bfb9-4036-a3ba-c2dfa822b2cf-6885197339053045179-9-0.2" type="actor-car-8509768798257635014" depart="240.00" departLane="0" departPos="102.33" departSpeed="max" arrivalLane="0" arrivalPos="23.88">
        <route edges="gneE14 gneE15 -gneE12 gneE11 gneE13 gneE14 gneE15 gneE8 gneE9 gneE2"/>
    </vehicle>
    <vehicle id="-flow-random-route-38bed0b1-cb50-4416-ba7b-460acb7c01d5-6885197339053045179-19-0.2" type="actor-car-8509768798257635014" depart="240.00" departLane="0" departPos="41.26" departSpeed="max" arrivalLane="0" arrivalPos="18.03">
        <route edges="gneE2 gneE12 -gneE15 -gneE14 -gneE13"/>
    </vehicle>
    <vehicle id="-flow-random-route-3a16e695-2d6b-4971-83c9-b9c908b20533-6885197339053045179-12-0.2" type="actor-car-8509768798257635014" depart="240.00" departLane="0" departPos="45.47" departSpeed="max" arrivalLane="0" arrivalPos="62.53">
        <route edges="gneE12 -gneE15 -gneE14 -gneE13 -gneE11 gneE12"/>
    </vehicle>
    <vehicle id="-flow-random-route-3aa2d0d8-af69-4312-b416-beda19f92517-6885197339053045179-3-0.2" type="actor-car-8509768798257635014" depart="240.00" departLane="0" departPos="6.12" departSpeed="max" arrivalLane="0" arrivalPos="54.03">
        <route edges="gneE15 -gneE12 gneE11 gneE13 gneE14 gneE15 gneE8 gneE9 gneE2 gneE12"/>
    </vehicle>
    <vehicle id="-flow-random-route-3b10f19e-9840-4168-97ee-7dea3947f6a4-6885197339053045179-24-0.2" type="actor-car-8509768798257635014" depart="240.00" departLane="0" departPos="36.07" departSpeed="max" arrivalLane="0" arrivalPos="26.35">
        <route edges="gneE12 gneE8 gneE9 gneE2 gneE12"/>
    </vehicle>
    <vehicle id="-flow-random-route-4299b49c-077c-4aa3-b25d-61b18b2cce9b-6885197339053045179-21-0.2" type="actor-car-8509768798257635014" depart="240.00" departLane="0" departPos="2.57" departSpeed="max" arrivalLane="0" arrivalPos="93.48">
        <route edges="gneE14 gneE15 -gneE12 gneE11 gneE13"/>
    </vehicle>
    <vehicle id="-flow-random-route-459d495a-447c-41b5-935a-b09304b589c4-6885197339053045179-14-0.2" type="actor-car-8509768798257635014" depart="240.00" departLane="0" departPos="56.02" departSpeed="max" arrivalLane="1" arrivalPos="4.81">
        <route edges="gneE8 gneE9 gneE2"/>
    </vehicle>
    <vehicle id="-flow-random-route-4763e96f-8f8a-4c55-b655-78d99f4a2653-6885197339053045179-1-0.2" type="actor-car-8509768798257635014" depart="240.00" departLane="0" departPos="77.55" departSpeed="max" arrivalLane="0" arrivalPos="39.51">
        <route edges="-gneE14 -gneE13 -gneE11 gneE12 -gneE15"/>
    </vehicle>
    <vehicle id="-flow-random-route-4d0bd5f1-8325-4d42-a67b-f9a038c2f4fd-6885197339053045179-22-0.2" type="actor-car-8509768798257635014" depart="240.00" departLane="1" departPos="40.85" departSpeed="max" arrivalLane="0" arrivalPos="30.50">
        <route edges="gneE9 gneE2 gneE11"/>
    </vehicle>
    <vehicle id="-flow-random-route-633de160-79bd-4599-93fa-f0011fed3c61-6885197339053045179-7-0.2" type="actor-car-8509768798257635014" depart="240.00" departLane="0" departPos="29.29" departSpeed="max" arrivalLane="0" arrivalPos="49.45">
        <route edges="gneE13 gneE14 gneE15 -gneE12 gneE11"/>
    </vehicle>
    <vehicle id="-flow-random-route-69b4e0cc-a3ee-40c4-b33a-d1a089178c4a-6885197339053045179-13-0.2" type="actor-car-8509768798257635014" depart="240.00" departLane="0" departPos="0.85" departSpeed="max" arrivalLane="0" arrivalPos="27.06">
        <route edges="gneE12 -gneE15 -gneE14 -gneE13 -gneE11 gneE12"/>
    </vehicle>
    <vehicle id="-flow-random-route-6d189118-abbd-4cf1-89e7-fa51123eca70-6885197339053045179-26-0.2" type="actor-car-8509768798257635014" depart="240.00" departLane="0" departPos="25.52" departSpeed="max" arrivalLane="0" arrivalPos="32.84">
        <route edges="-gneE15 -gneE14 -gneE13 -gneE11 gneE12 gneE8"/>
    </vehicle>
    <vehicle id="-flow-random-route-6dac5065-a9ee-42f1-8081-72d4b151a743-6885197339053045179-17-0.2" type="actor-car-8509768798257635014" depart="240.00" departLane="0" departPos="97.81" departSpeed="max" arrivalLane="0" arrivalPos="75.07">
        <route edges="-gneE14 -gneE13 -gneE11 gneE12 gneE8 gneE9 gneE2 gneE11 gneE13 gneE14"/>
    </vehicle>
    <vehicle id="-flow-random-route-821572c7-e716-4573-a9ec-fdb91371a6d3-6885197339053045179-4-0.2" type="actor-car-8509768798257635014" depart="240.00" departLane="0" departPos="29.97" departSpeed="max" arrivalLane="0" arrivalPos="7.56">
        <route edges="gneE2 gneE11 gneE13 gneE14 gneE15"/>
    </vehicle>
    <vehicle id="-flow-random-route-9419c5b3-a346-452f-885a-4ea227e0cbd0-6885197339053045179-29-0.2" type="actor-car-8509768798257635014" depart="240.00" departLane="0" departPos="48.96" departSpeed="max" arrivalLane="1" arrivalPos="39.54">
        <route edges="-gneE14 -gneE13 -gneE11 gneE12 -gneE15 -gneE14 -gneE13 -gneE11 gneE12 gneE8"/>
    </vehicle>
    <vehicle id="-flow-random-route-9a2d7a49-e364-4bb5-97cc-7553bb8d2e95-6885197339053045179-11-0.2" type="actor-car-8509768798257635014" depart="240.00" departLane="0" departPos="88.28" departSpeed="max" arrivalLane="0" arrivalPos="85.30">
        <route edges="-gneE12 gneE11 gneE13"/>
    </vehicle>
    <vehicle id="-flow-random-route-9bddf391-c146-4ef6-be67-76c7929afdf6-6885197339053045179-16-0.2" type="actor-car-8509768798257635014" depart="240.00" departLane="1" departPos="52.50" departSpeed="max" arrivalLane="0" arrivalPos="47.39">
        <route edges="gneE8 gneE9 gneE2 gneE12 gneE8 gneE9 gneE2 gneE11 gneE13 gneE14"/>
    </vehicle>
    <vehicle id="-flow-random-route-a73029a3-02da-4183-bc95-01dfbedd149e-6885197339053045179-10-0.2" type="actor-car-8509768798257635014" depart="240.00" departLane="0" departPos="103.85" departSpeed="max" arrivalLane="0" arrivalPos="11.20">
        <route edges="-gneE12 gneE11 gneE13 gneE14 gneE15"/>
    </vehicle>
    <vehicle id="-flow-random-route-ac4d31d0-a110-474d-91d3-d9532fd3a76b-6885197339053045179-15-0.2" type="actor-car-8509768798257635014" depart="240.00" departLane="0" departPos="31.59" departSpeed="max" arrivalLane="0" arrivalPos="42.51">
        <route edges="gneE15 -gneE12 gneE11 gneE13 gneE14"/>
    </vehicle>
    <vehicle id="-flow-random-route-c4d008ff-bb89-4777-bdef-604b55540fd9-6885197339053045179-25-0.2" type="actor-car-8509768798257635014" depart="240.00" departLane="0" departPos="63.68" departSpeed="max" arrivalLane="0" arrivalPos="19.34">
        <route edges="gneE14 gneE15 -gneE12 gneE11 gneE13"/>
    </vehicle>
    <vehicle id="-flow-random-route-cfebe1cc-fb46-49bc-86c2-b5011dabd1df-6885197339053045179-20-0.2" type="actor-car-8509768798257635014" depart="240.00" departLane="0" departPos="22.44" departSpeed="max" arrivalLane="0" arrivalPos="114.48">
        <route edges="gneE12 gneE8 gneE9 gneE2 gneE12"/>
    </vehicle>
    <vehicle id="-flow-random-route-d706cc37-7e60-4e19-94ce-1c9ebc7a1bf6-6885197339053045179-0-0.2" type="actor-car-8509768798257635014" depart="240.00" departLane="0" departPos="36.42" departSpeed="max" arrivalLane="0" arrivalPos="20.79">
        <route edges="gneE15 -gneE12 gneE11 gneE13 gneE14 gneE15 gneE8 gneE9 gneE2 gneE12"/>
    </vehicle>
    <vehicle id="-flow-random-route-decf746d-15c6-4647-82bc-f31413f72303-6885197339053045179-8-0.2" type="actor-car-8509768798257635014" depart="240.00" departLane="0" departPos="10.46" departSpeed="max" arrivalLane="0" arrivalPos="16.57">
        <route edges="gneE11 gneE13 gneE14 gneE15 -gneE12"/>
    </vehicle>