<?xml version="1.0" encoding="UTF-8"?>

<!-- generated on Fri Sep 18 07:30:19 2020 by Eclipse SUMO duarouter Version 1.6.0
<configuration xmlns:xsi="http://www.w3.org/2001/XMLSchema-instance" xsi:noNamespaceSchemaLocation="http://sumo.dlr.de/xsd/duarouterConfiguration.xsd">

    <input>
        <net-file value="dataset_public/roundabout_loop/roundabout_a/map.net.xml"/>
        <route-files value="/tmp/tmpc11eupd7/trips.trips.xml"/>
    </input>

    <output>
        <output-file value="dataset_public/roundabout_loop/roundabout_a/traffic/30_patient_car.rou.xml"/>
        <alternatives-output value="dataset_public/roundabout_loop/roundabout_a/traffic/30_patient_car.rou.alt.xml"/>
    </output>

    <processing>
        <unsorted-input value="true"/>
        <repair value="true"/>
    </processing>

    <report>
        <error-log value="/tmp/smarts/_duarouter_routing/traffic/30_patient_car.log"/>
        <no-step-log value="true"/>
    </report>

    <random_number>
        <seed value="42"/>
    </random_number>

</configuration>
-->

<routes xmlns:xsi="http://www.w3.org/2001/XMLSchema-instance" xsi:noNamespaceSchemaLocation="http://sumo.dlr.de/xsd/routes_file.xsd">
    <vType id="actor-car--7277549907456295346" minGap="2.50" speedFactor="normc(0.50,0.20,0.20,2.00)" vClass="passenger" impatience="0.50" lcCooperative="0.5" lcImpatience="0" jmDriveAfterYellowTime="1.0" accel="2.6" decel="4.5" sigma="0.5"/>
    <vehicle id="-flow-random-route-03f50ba3-36f3-4d6a-9834-1e16b2fe8ec0--8338683607907784385-0-0.0" type="actor-car--7277549907456295346" depart="0.00" departLane="1" departPos="81.61" departSpeed="max" arrivalLane="0" arrivalPos="26.98">
        <route edges="gneE14 gneE13 edge-south-SE edge-east-EN edge-north-NW gneE41 gneE42 gneE51 -gneE48 -gneE37"/>
    </vehicle>
    <vehicle id="-flow-random-route-05b72612-ac7a-4b02-92fe-f99d3c7012e1--8338683607907784385-6-0.0" type="actor-car--7277549907456295346" depart="0.00" departLane="0" departPos="57.03" departSpeed="max" arrivalLane="0" arrivalPos="37.00">
        <route edges="gneE13 edge-south-SE"/>
    </vehicle>
    <vehicle id="-flow-random-route-11cb0466-67f0-4f7b-8de7-fd94ee917800--8338683607907784385-25-0.0" type="actor-car--7277549907456295346" depart="0.00" departLane="0" departPos="14.71" departSpeed="max" arrivalLane="0" arrivalPos="49.42">
        <route edges="-gneE36 edge-north-NW"/>
    </vehicle>
    <vehicle id="-flow-random-route-1748a098-2707-41be-a118-e21287c7c66b--8338683607907784385-20-0.0" type="actor-car--7277549907456295346" depart="0.00" departLane="0" departPos="70.18" departSpeed="max" arrivalLane="0" arrivalPos="17.32">
        <route edges="-gneE48 -gneE37 -gneE36"/>
    </vehicle>
    <vehicle id="-flow-random-route-2111c9fa-8944-475c-aded-f31586afdf14--8338683607907784385-29-0.0" type="actor-car--7277549907456295346" depart="0.00" departLane="0" departPos="6.16" departSpeed="max" arrivalLane="1" arrivalPos="53.83">
        <route edges="edge-south-SE edge-east-EN"/>
    </vehicle>
    <vehicle id="-flow-random-route-2347e48d-ed56-48ea-b864-18092808c435--8338683607907784385-14-0.0" type="actor-car--7277549907456295346" depart="0.00" departLane="0" departPos="59.30" departSpeed="max" arrivalLane="0" arrivalPos="45.06">
        <route edges="edge-east-EN gneE36 gneE37 gneE48 gneE53 gneE14 gneE13 edge-south-SE edge-east-EN edge-north-NW"/>
    </vehicle>
    <vehicle id="-flow-random-route-2c20aac7-eabf-4fdb-ac78-9e3a0b0005cb--8338683607907784385-2-0.0" type="actor-car--7277549907456295346" depart="0.00" departLane="1" departPos="59.44" departSpeed="max" arrivalLane="1" arrivalPos="8.71">
        <route edges="edge-north-NW gneE41 gneE42 gneE51 -gneE48 -gneE37 -gneE36 edge-north-NW edge-west-WS edge-south-SE"/>
    </vehicle>
    <vehicle id="-flow-random-route-449c0b63-4d55-4df0-8f63-bf3a26b0398c--8338683607907784385-3-0.0" type="actor-car--7277549907456295346" depart="0.00" departLane="0" departPos="80.70" departSpeed="max" arrivalLane="0" arrivalPos="0.18">
        <route edges="-gneE37 -gneE36 edge-north-NW edge-west-WS edge-south-SE edge-east-EN edge-north-NW gneE41 gneE42 gneE51"/>
    </vehicle>
    <vehicle id="-flow-random-route-4bfe409b-275e-4ba1-b5fb-e4464dbbfc82--8338683607907784385-17-0.0" type="actor-car--7277549907456295346" depart="0.00" departLane="0" departPos="61.54" departSpeed="max" arrivalLane="1" arrivalPos="66.39">
        <route edges="-gneE48 -gneE37 -gneE36 edge-north-NW edge-west-WS edge-south-SE edge-east-EN edge-north-NW gneE41 gneE42"/>
    </vehicle>
    <vehicle id="-flow-random-route-61e12715-4caf-49e9-b728-17b01e5d092e--8338683607907784385-18-0.0" type="actor-car--7277549907456295346" depart="0.00" departLane="0" departPos="65.67" departSpeed="max" arrivalLane="0" arrivalPos="53.11">
        <route edges="gneE37 gneE48"/>
    </vehicle>
    <vehicle id="-flow-random-route-71682e85-81f0-4cd5-9708-23cde13375df--8338683607907784385-5-0.0" type="actor-car--7277549907456295346" depart="0.00" departLane="0" departPos="89.20" departSpeed="max" arrivalLane="0" arrivalPos="4.18">
        <route edges="-gneE48 -gneE37 -gneE36"/>
    </vehicle>
    <vehicle id="-flow-random-route-82bd796d-5b3b-4e93-b5ad-95c62e5fdf7f--8338683607907784385-4-0.0" type="actor-car--7277549907456295346" depart="0.00" departLane="0" departPos="49.00" departSpeed="max" arrivalLane="0" arrivalPos="37.23">
        <route edges="gneE14 gneE13"/>
    </vehicle>
    <vehicle id="-flow-random-route-89d89584-e4a7-4ebc-af5f-002dfa64959b--8338683607907784385-12-0.0" type="actor-car--7277549907456295346" depart="0.00" departLane="1" departPos="17.76" departSpeed="max" arrivalLane="0" arrivalPos="95.19">
        <route edges="gneE13 edge-south-SE edge-east-EN edge-north-NW edge-west-WS edge-south-SE edge-east-EN gneE36 gneE37 gneE48"/>
    </vehicle>
    <vehicle id="-flow-random-route-8ee49a86-7db5-4bec-b7ad-5c858f26bf7a--8338683607907784385-10-0.0" type="actor-car--7277549907456295346" depart="0.00" departLane="0" departPos="40.61" departSpeed="max" arrivalLane="1" arrivalPos="26.83">
        <route edges="edge-east-EN edge-north-NW"/>
    </vehicle>
    <vehicle id="-flow-random-route-96a0fa2a-c466-4001-a7dc-5696e6eda30a--8338683607907784385-9-0.0" type="actor-car--7277549907456295346" depart="0.00" departLane="0" departPos="82.61" departSpeed="max" arrivalLane="0" arrivalPos="74.88">
        <route edges="gneE37 gneE48"/>
    </vehicle>
    <vehicle id="-flow-random-route-a10433a3-c369-4b43-9af6-913271ad15b6--8338683607907784385-26-0.0" type="actor-car--7277549907456295346" depart="0.00" departLane="0" departPos="43.54" departSpeed="max" arrivalLane="1" arrivalPos="4.28">
        <route edges="edge-east-EN edge-north-NW gneE41"/>
    </vehicle>
    <vehicle id="-flow-random-route-a77e7995-e7a4-48b1-9d0a-74057d867da7--8338683607907784385-1-0.0" type="actor-car--7277549907456295346" depart="0.00" departLane="1" departPos="53.49" departSpeed="max" arrivalLane="0" arrivalPos="99.01">
        <route edges="gneE14 gneE13 edge-south-SE edge-east-EN edge-north-NW gneE41 gneE42 gneE51 -gneE48 -gneE37"/>
    </vehicle>
    <vehicle id="-flow-random-route-ae32674e-6f12-48e9-ae17-261f383e2333--8338683607907784385-22-0.0" type="actor-car--7277549907456295346" depart="0.00" departLane="1" departPos="52.92" departSpeed="max" arrivalLane="0" arrivalPos="25.87">
        <route edges="edge-east-EN edge-north-NW edge-west-WS edge-south-SE edge-east-EN gneE36 gneE37 gneE48 gneE53 gneE14"/>
    </vehicle>
    <vehicle id="-flow-random-route-b65c0177-bf99-4fcc-955d-f2732b1913c2--8338683607907784385-11-0.0" type="actor-car--7277549907456295346" depart="0.00" departLane="0" departPos="8.62" departSpeed="max" arrivalLane="1" arrivalPos="65.00">
        <route edges="gneE41 gneE42 gneE51 -gneE48 -gneE37 -gneE36 edge-north-NW edge-west-WS edge-south-SE edge-east-EN"/>
    </vehicle>
    <vehicle id="-flow-random-route-c4891b59-ca57-4bbf-8784-23942130f6b6--8338683607907784385-24-0.0" type="actor-car--7277549907456295346" depart="0.00" departLane="1" departPos="12.16" departSpeed="max" arrivalLane="0" arrivalPos="77.64">
        <route edges="gneE51 -gneE48 -gneE37"/>
    </vehicle>
    <vehicle id="-flow-random-route-d0f92929-c1a2-4a13-bcea-b6f06e4c5bf6--8338683607907784385-21-0.0" type="actor-car--7277549907456295346" depart="0.00" departLane="0" departPos="10.65" departSpeed="max" arrivalLane="1" arrivalPos="6.38">
        <route edges="gneE48 gneE53 gneE14 gneE13 edge-south-SE edge-east-EN"/>
    </vehicle>
    <vehicle id="-flow-random-route-d366e227-4cd7-47ad-9bd9-7f08e3510b0c--8338683607907784385-8-0.0" type="actor-car--7277549907456295346" depart="0.00" departLane="0" departPos="40.41" departSpeed="max" arrivalLane="0" arrivalPos="38.44">
        <route edges="gneE13 edge-south-SE"/>
    </vehicle>
    <vehicle id="-flow-random-route-d4b1a011-d725-416d-9bd5-348190a59429--8338683607907784385-23-0.0" type="actor-car--7277549907456295346" depart="0.00" departLane="0" departPos="50.79" departSpeed="max" arrivalLane="0" arrivalPos="47.09">
        <route edges="gneE42 gneE51 -gneE48"/>
    </vehicle>
    <vehicle id="-flow-random-route-d4f6cc50-07e1-414b-8b29-4e5b2b807813--8338683607907784385-19-0.0" type="actor-car--7277549907456295346" depart="0.00" departLane="0" departPos="16.73" departSpeed="max" arrivalLane="0" arrivalPos="13.09">
        <route edges="-gneE36 edge-north-NW edge-west-WS edge-south-SE edge-east-EN edge-north-NW edge-west-WS edge-south-SE edge-east-EN gneE36"/>
    </vehicle>
    <vehicle id="-flow-random-route-dd7ef744-20bc-4c05-ab8e-465ac4e0f06f--8338683607907784385-7-0.0" type="actor-car--7277549907456295346" depart="0.00" departLane="0" departPos="5.17" departSpeed="max" arrivalLane="1" arrivalPos="18.89">
        <route edges="-gneE36 edge-north-NW gneE41 gneE42 gneE51 -gneE48 -gneE37 -gneE36 edge-north-NW edge-west-WS"/>
    </vehicle>
    <vehicle id="-flow-random-route-e0b15167-a7d8-475a-96f8-b05c918bce17--8338683607907784385-28-0.0" type="actor-car--7277549907456295346" depart="0.00" departLane="1" departPos="55.00" departSpeed="max" arrivalLane="1" arrivalPos="40.41">
        <route edges="edge-east-EN gneE36 gneE37 gneE48 gneE53 gneE14 gneE13 edge-south-SE edge-east-EN edge-north-NW"/>
    </vehicle>
    <vehicle id="-flow-random-route-e63261ee-c50b-43f6-905d-e3c7d910dcec--8338683607907784385-27-0.0" type="actor-car--7277549907456295346" depart="0.00" departLane="0" departPos="12.69" departSpeed="max" arrivalLane="1" arrivalPos="56.78">
        <route edges="gneE37 gneE48 gneE53 gneE14 gneE13 edge-south-SE edge-east-EN edge-north-NW gneE41 gneE42"/>
    </vehicle>
    <vehicle id="-flow-random-route-edd756ba-ab0e-4a78-aeea-929a9849c035--8338683607907784385-13-0.0" type="actor-car--7277549907456295346" depart="0.00" departLane="0" departPos="166.20" departSpeed="max" arrivalLane="0" arrivalPos="38.25">
        <route edges="-gneE37 -gneE36 edge-north-NW"/>
    </vehicle>
    <vehicle id="-flow-random-route-fa66e3e0-c56c-4f47-b723-822c300e0ec9--8338683607907784385-15-0.0" type="actor-car--7277549907456295346" depart="0.00" departLane="0" departPos="32.39" departSpeed="max" arrivalLane="1" arrivalPos="6.29">
        <route edges="-gneE37 -gneE36 edge-north-NW edge-west-WS edge-south-SE edge-east-EN gneE36 gneE37 gneE48 gneE53"/>
    </vehicle>
    <vehicle id="-flow-random-route-fe035e07-2c18-4636-8d6b-e8cfb3a99fed--8338683607907784385-16-0.0" type="actor-car--7277549907456295346" depart="0.00" departLane="1" departPos="34.35" departSpeed="max" arrivalLane="0" arrivalPos="82.43">
        <route edges="gneE14 gneE13 edge-south-SE edge-east-EN edge-north-NW gneE41 gneE42 gneE51 -gneE48 -gneE37"/>
    </vehicle>
    <vehicle id="-flow-random-route-03f50ba3-36f3-4d6a-9834-1e16b2fe8ec0--8338683607907784385-0-0.1" type="actor-car--7277549907456295346" depart="120.00" departLane="1" departPos="81.61" departSpeed="max" arrivalLane="0" arrivalPos="26.98">
        <route edges="gneE14 gneE13 edge-south-SE edge-east-EN edge-north-NW gneE41 gneE42 gneE51 -gneE48 -gneE37"/>
    </vehicle>
    <vehicle id="-flow-random-route-05b72612-ac7a-4b02-92fe-f99d3c7012e1--8338683607907784385-6-0.1" type="actor-car--7277549907456295346" depart="120.00" departLane="0" departPos="57.03" departSpeed="max" arrivalLane="0" arrivalPos="37.00">
        <route edges="gneE13 edge-south-SE"/>
    </vehicle>
    <vehicle id="-flow-random-route-11cb0466-67f0-4f7b-8de7-fd94ee917800--8338683607907784385-25-0.1" type="actor-car--7277549907456295346" depart="120.00" departLane="0" departPos="14.71" departSpeed="max" arrivalLane="0" arrivalPos="49.42">
        <route edges="-gneE36 edge-north-NW"/>
    </vehicle>
    <vehicle id="-flow-random-route-1748a098-2707-41be-a118-e21287c7c66b--8338683607907784385-20-0.1" type="actor-car--7277549907456295346" depart="120.00" departLane="0" departPos="70.18" departSpeed="max" arrivalLane="0" arrivalPos="17.32">
        <route edges="-gneE48 -gneE37 -gneE36"/>
    </vehicle>
    <vehicle id="-flow-random-route-2111c9fa-8944-475c-aded-f31586afdf14--8338683607907784385-29-0.1" type="actor-car--7277549907456295346" depart="120.00" departLane="0" departPos="6.16" departSpeed="max" arrivalLane="1" arrivalPos="53.83">
        <route edges="edge-south-SE edge-east-EN"/>
    </vehicle>
    <vehicle id="-flow-random-route-2347e48d-ed56-48ea-b864-18092808c435--8338683607907784385-14-0.1" type="actor-car--7277549907456295346" depart="120.00" departLane="0" departPos="59.30" departSpeed="max" arrivalLane="0" arrivalPos="45.06">
        <route edges="edge-east-EN gneE36 gneE37 gneE48 gneE53 gneE14 gneE13 edge-south-SE edge-east-EN edge-north-NW"/>
    </vehicle>
    <vehicle id="-flow-random-route-2c20aac7-eabf-4fdb-ac78-9e3a0b0005cb--8338683607907784385-2-0.1" type="actor-car--7277549907456295346" depart="120.00" departLane="1" departPos="59.44" departSpeed="max" arrivalLane="1" arrivalPos="8.71">
        <route edges="edge-north-NW gneE41 gneE42 gneE51 -gneE48 -gneE37 -gneE36 edge-north-NW edge-west-WS edge-south-SE"/>
    </vehicle>
    <vehicle id="-flow-random-route-449c0b63-4d55-4df0-8f63-bf3a26b0398c--8338683607907784385-3-0.1" type="actor-car--7277549907456295346" depart="120.00" departLane="0" departPos="80.70" departSpeed="max" arrivalLane="0" arrivalPos="0.18">
        <route edges="-gneE37 -gneE36 edge-north-NW edge-west-WS edge-south-SE edge-east-EN edge-north-NW gneE41 gneE42 gneE51"/>
    </vehicle>
    <vehicle id="-flow-random-route-4bfe409b-275e-4ba1-b5fb-e4464dbbfc82--8338683607907784385-17-0.1" type="actor-car--7277549907456295346" depart="120.00" departLane="0" departPos="61.54" departSpeed="max" arrivalLane="1" arrivalPos="66.39">
        <route edges="-gneE48 -gneE37 -gneE36 edge-north-NW edge-west-WS edge-south-SE edge-east-EN edge-north-NW gneE41 gneE42"/>
    </vehicle>
    <vehicle id="-flow-random-route-61e12715-4caf-49e9-b728-17b01e5d092e--8338683607907784385-18-0.1" type="actor-car--7277549907456295346" depart="120.00" departLane="0" departPos="65.67" departSpeed="max" arrivalLane="0" arrivalPos="53.11">
        <route edges="gneE37 gneE48"/>
    </vehicle>
    <vehicle id="-flow-random-route-71682e85-81f0-4cd5-9708-23cde13375df--8338683607907784385-5-0.1" type="actor-car--7277549907456295346" depart="120.00" departLane="0" departPos="89.20" departSpeed="max" arrivalLane="0" arrivalPos="4.18">
        <route edges="-gneE48 -gneE37 -gneE36"/>
    </vehicle>
    <vehicle id="-flow-random-route-82bd796d-5b3b-4e93-b5ad-95c62e5fdf7f--8338683607907784385-4-0.1" type="actor-car--7277549907456295346" depart="120.00" departLane="0" departPos="49.00" departSpeed="max" arrivalLane="0" arrivalPos="37.23">
        <route edges="gneE14 gneE13"/>
    </vehicle>
    <vehicle id="-flow-random-route-89d89584-e4a7-4ebc-af5f-002dfa64959b--8338683607907784385-12-0.1" type="actor-car--7277549907456295346" depart="120.00" departLane="1" departPos="17.76" departSpeed="max" arrivalLane="0" arrivalPos="95.19">
        <route edges="gneE13 edge-south-SE edge-east-EN edge-north-NW edge-west-WS edge-south-SE edge-east-EN gneE36 gneE37 gneE48"/>
    </vehicle>
    <vehicle id="-flow-random-route-8ee49a86-7db5-4bec-b7ad-5c858f26bf7a--8338683607907784385-10-0.1" type="actor-car--7277549907456295346" depart="120.00" departLane="0" departPos="40.61" departSpeed="max" arrivalLane="1" arrivalPos="26.83">
        <route edges="edge-east-EN edge-north-NW"/>
    </vehicle>
    <vehicle id="-flow-random-route-96a0fa2a-c466-4001-a7dc-5696e6eda30a--8338683607907784385-9-0.1" type="actor-car--7277549907456295346" depart="120.00" departLane="0" departPos="82.61" departSpeed="max" arrivalLane="0" arrivalPos="74.88">
        <route edges="gneE37 gneE48"/>
    </vehicle>
    <vehicle id="-flow-random-route-a10433a3-c369-4b43-9af6-913271ad15b6--8338683607907784385-26-0.1" type="actor-car--7277549907456295346" depart="120.00" departLane="0" departPos="43.54" departSpeed="max" arrivalLane="1" arrivalPos="4.28">
        <route edges="edge-east-EN edge-north-NW gneE41"/>
    </vehicle>
    <vehicle id="-flow-random-route-a77e7995-e7a4-48b1-9d0a-74057d867da7--8338683607907784385-1-0.1" type="actor-car--7277549907456295346" depart="120.00" departLane="1" departPos="53.49" departSpeed="max" arrivalLane="0" arrivalPos="99.01">
        <route edges="gneE14 gneE13 edge-south-SE edge-east-EN edge-north-NW gneE41 gneE42 gneE51 -gneE48 -gneE37"/>
    </vehicle>
    <vehicle id="-flow-random-route-ae32674e-6f12-48e9-ae17-261f383e2333--8338683607907784385-22-0.1" type="actor-car--7277549907456295346" depart="120.00" departLane="1" departPos="52.92" departSpeed="max" arrivalLane="0" arrivalPos="25.87">
        <route edges="edge-east-EN edge-north-NW edge-west-WS edge-south-SE edge-east-EN gneE36 gneE37 gneE48 gneE53 gneE14"/>
    </vehicle>
    <vehicle id="-flow-random-route-b65c0177-bf99-4fcc-955d-f2732b1913c2--8338683607907784385-11-0.1" type="actor-car--7277549907456295346" depart="120.00" departLane="0" departPos="8.62" departSpeed="max" arrivalLane="1" arrivalPos="65.00">
        <route edges="gneE41 gneE42 gneE51 -gneE48 -gneE37 -gneE36 edge-north-NW edge-west-WS edge-south-SE edge-east-EN"/>
    </vehicle>
    <vehicle id="-flow-random-route-c4891b59-ca57-4bbf-8784-23942130f6b6--8338683607907784385-24-0.1" type="actor-car--7277549907456295346" depart="120.00" departLane="1" departPos="12.16" departSpeed="max" arrivalLane="0" arrivalPos="77.64">
        <route edges="gneE51 -gneE48 -gneE37"/>
    </vehicle>
    <vehicle id="-flow-random-route-d0f92929-c1a2-4a13-bcea-b6f06e4c5bf6--8338683607907784385-21-0.1" type="actor-car--7277549907456295346" depart="120.00" departLane="0" departPos="10.65" departSpeed="max" arrivalLane="1" arrivalPos="6.38">
        <route edges="gneE48 gneE53 gneE14 gneE13 edge-south-SE edge-east-EN"/>
    </vehicle>
    <vehicle id="-flow-random-route-d366e227-4cd7-47ad-9bd9-7f08e3510b0c--8338683607907784385-8-0.1" type="actor-car--7277549907456295346" depart="120.00" departLane="0" departPos="40.41" departSpeed="max" arrivalLane="0" arrivalPos="38.44">
        <route edges="gneE13 edge-south-SE"/>
    </vehicle>
    <vehicle id="-flow-random-route-d4b1a011-d725-416d-9bd5-348190a59429--8338683607907784385-23-0.1" type="actor-car--7277549907456295346" depart="120.00" departLane="0" departPos="50.79" departSpeed="max" arrivalLane="0" arrivalPos="47.09">
        <route edges="gneE42 gneE51 -gneE48"/>
    </vehicle>
    <vehicle id="-flow-random-route-d4f6cc50-07e1-414b-8b29-4e5b2b807813--8338683607907784385-19-0.1" type="actor-car--7277549907456295346" depart="120.00" departLane="0" departPos="16.73" departSpeed="max" arrivalLane="0" arrivalPos="13.09">
        <route edges="-gneE36 edge-north-NW edge-west-WS edge-south-SE edge-east-EN edge-north-NW edge-west-WS edge-south-SE edge-east-EN gneE36"/>
    </vehicle>
    <vehicle id="-flow-random-route-dd7ef744-20bc-4c05-ab8e-465ac4e0f06f--8338683607907784385-7-0.1" type="actor-car--7277549907456295346" depart="120.00" departLane="0" departPos="5.17" departSpeed="max" arrivalLane="1" arrivalPos="18.89">
        <route edges="-gneE36 edge-north-NW gneE41 gneE42 gneE51 -gneE48 -gneE37 -gneE36 edge-north-NW edge-west-WS"/>
    </vehicle>
    <vehicle id="-flow-random-route-e0b15167-a7d8-475a-96f8-b05c918bce17--8338683607907784385-28-0.1" type="actor-car--7277549907456295346" depart="120.00" departLane="1" departPos="55.00" departSpeed="max" arrivalLane="1" arrivalPos="40.41">
        <route edges="edge-east-EN gneE36 gneE37 gneE48 gneE53 gneE14 gneE13 edge-south-SE edge-east-EN edge-north-NW"/>
    </vehicle>
    <vehicle id="-flow-random-route-e63261ee-c50b-43f6-905d-e3c7d910dcec--8338683607907784385-27-0.1" type="actor-car--7277549907456295346" depart="120.00" departLane="0" departPos="12.69" departSpeed="max" arrivalLane="1" arrivalPos="56.78">
        <route edges="gneE37 gneE48 gneE53 gneE14 gneE13 edge-south-SE edge-east-EN edge-north-NW gneE41 gneE42"/>
    </vehicle>
    <vehicle id="-flow-random-route-edd756ba-ab0e-4a78-aeea-929a9849c035--8338683607907784385-13-0.1" type="actor-car--7277549907456295346" depart="120.00" departLane="0" departPos="166.20" departSpeed="max" arrivalLane="0" arrivalPos="38.25">
        <route edges="-gneE37 -gneE36 edge-north-NW"/>
    </vehicle>
    <vehicle id="-flow-random-route-fa66e3e0-c56c-4f47-b723-822c300e0ec9--8338683607907784385-15-0.1" type="actor-car--7277549907456295346" depart="120.00" departLane="0" departPos="32.39" departSpeed="max" arrivalLane="1" arrivalPos="6.29">
        <route edges="-gneE37 -gneE36 edge-north-NW edge-west-WS edge-south-SE edge-east-EN gneE36 gneE37 gneE48 gneE53"/>
    </vehicle>
    <vehicle id="-flow-random-route-fe035e07-2c18-4636-8d6b-e8cfb3a99fed--8338683607907784385-16-0.1" type="actor-car--7277549907456295346" depart="120.00" departLane="1" departPos="34.35" departSpeed="max" arrivalLane="0" arrivalPos="82.43">
        <route edges="gneE14 gneE13 edge-south-SE edge-east-EN edge-north-NW gneE41 gneE42 gneE51 -gneE48 -gneE37"/>
    </vehicle>
    <vehicle id="-flow-random-route-03f50ba3-36f3-4d6a-9834-1e16b2fe8ec0--8338683607907784385-0-0.2" type="actor-car--7277549907456295346" depart="240.00" departLane="1" departPos="81.61" departSpeed="max" arrivalLane="0" arrivalPos="26.98">
        <route edges="gneE14 gneE13 edge-south-SE edge-east-EN edge-north-NW gneE41 gneE42 gneE51 -gneE48 -gneE37"/>
    </vehicle>
    <vehicle id="-flow-random-route-05b72612-ac7a-4b02-92fe-f99d3c7012e1--8338683607907784385-6-0.2" type="actor-car--7277549907456295346" depart="240.00" departLane="0" departPos="57.03" departSpeed="max" arrivalLane="0" arrivalPos="37.00">
        <route edges="gneE13 edge-south-SE"/>
    </vehicle>
    <vehicle id="-flow-random-route-11cb0466-67f0-4f7b-8de7-fd94ee917800--8338683607907784385-25-0.2" type="actor-car--7277549907456295346" depart="240.00" departLane="0" departPos="14.71" departSpeed="max" arrivalLane="0" arrivalPos="49.42">
        <route edges="-gneE36 edge-north-NW"/>
    </vehicle>
    <vehicle id="-flow-random-route-1748a098-2707-41be-a118-e21287c7c66b--8338683607907784385-20-0.2" type="actor-car--7277549907456295346" depart="240.00" departLane="0" departPos="70.18" departSpeed="max" arrivalLane="0" arrivalPos="17.32">
        <route edges="-gneE48 -gneE37 -gneE36"/>
    </vehicle>
    <vehicle id="-flow-random-route-2111c9fa-8944-475c-aded-f31586afdf14--8338683607907784385-29-0.2" type="actor-car--7277549907456295346" depart="240.00" departLane="0" departPos="6.16" departSpeed="max" arrivalLane="1" arrivalPos="53.83">
        <route edges="edge-south-SE edge-east-EN"/>
    </vehicle>
    <vehicle id="-flow-random-route-2347e48d-ed56-48ea-b864-18092808c435--8338683607907784385-14-0.2" type="actor-car--7277549907456295346" depart="240.00" departLane="0" departPos="59.30" departSpeed="max" arrivalLane="0" arrivalPos="45.06">
        <route edges="edge-east-EN gneE36 gneE37 gneE48 gneE53 gneE14 gneE13 edge-south-SE edge-east-EN edge-north-NW"/>
    </vehicle>
    <vehicle id="-flow-random-route-2c20aac7-eabf-4fdb-ac78-9e3a0b0005cb--8338683607907784385-2-0.2" type="actor-car--7277549907456295346" depart="240.00" departLane="1" departPos="59.44" departSpeed="max" arrivalLane="1" arrivalPos="8.71">
        <route edges="edge-north-NW gneE41 gneE42 gneE51 -gneE48 -gneE37 -gneE36 edge-north-NW edge-west-WS edge-south-SE"/>
    </vehicle>
    <vehicle id="-flow-random-route-449c0b63-4d55-4df0-8f63-bf3a26b0398c--8338683607907784385-3-0.2" type="actor-car--7277549907456295346" depart="240.00" departLane="0" departPos="80.70" departSpeed="max" arrivalLane="0" arrivalPos="0.18">
        <route edges="-gneE37 -gneE36 edge-north-NW edge-west-WS edge-south-SE edge-east-EN edge-north-NW gneE41 gneE42 gneE51"/>
    </vehicle>
    <vehicle id="-flow-random-route-4bfe409b-275e-4ba1-b5fb-e4464dbbfc82--8338683607907784385-17-0.2" type="actor-car--7277549907456295346" depart="240.00" departLane="0" departPos="61.54" departSpeed="max" arrivalLane="1" arrivalPos="66.39">
        <route edges="-gneE48 -gneE37 -gneE36 edge-north-NW edge-west-WS edge-south-SE edge-east-EN edge-north-NW gneE41 gneE42"/>
    </vehicle>
    <vehicle id="-flow-random-route-61e12715-4caf-49e9-b728-17b01e5d092e--8338683607907784385-18-0.2" type="actor-car--7277549907456295346" depart="240.00" departLane="0" departPos="65.67" departSpeed="max" arrivalLane="0" arrivalPos="53.11">
        <route edges="gneE37 gneE48"/>
    </vehicle>
    <vehicle id="-flow-random-route-71682e85-81f0-4cd5-9708-23cde13375df--8338683607907784385-5-0.2" type="actor-car--7277549907456295346" depart="240.00" departLane="0" departPos="89.20" departSpeed="max" arrivalLane="0" arrivalPos="4.18">
        <route edges="-gneE48 -gneE37 -gneE36"/>
    </vehicle>
    <vehicle id="-flow-random-route-82bd796d-5b3b-4e93-b5ad-95c62e5fdf7f--8338683607907784385-4-0.2" type="actor-car--7277549907456295346" depart="240.00" departLane="0" departPos="49.00" departSpeed="max" arrivalLane="0" arrivalPos="37.23">
        <route edges="gneE14 gneE13"/>
    </vehicle>
    <vehicle id="-flow-random-route-89d89584-e4a7-4ebc-af5f-002dfa64959b--8338683607907784385-12-0.2" type="actor-car--7277549907456295346" depart="240.00" departLane="1" departPos="17.76" departSpeed="max" arrivalLane="0" arrivalPos="95.19">
        <route edges="gneE13 edge-south-SE edge-east-EN edge-north-NW edge-west-WS edge-south-SE edge-east-EN gneE36 gneE37 gneE48"/>
    </vehicle>
    <vehicle id="-flow-random-route-8ee49a86-7db5-4bec-b7ad-5c858f26bf7a--8338683607907784385-10-0.2" type="actor-car--7277549907456295346" depart="240.00" departLane="0" departPos="40.61" departSpeed="max" arrivalLane="1" arrivalPos="26.83">
        <route edges="edge-east-EN edge-north-NW"/>
    </vehicle>
    <vehicle id="-flow-random-route-96a0fa2a-c466-4001-a7dc-5696e6eda30a--8338683607907784385-9-0.2" type="actor-car--7277549907456295346" depart="240.00" departLane="0" departPos="82.61" departSpeed="max" arrivalLane="0" arrivalPos="74.88">
        <route edges="gneE37 gneE48"/>
    </vehicle>
    <vehicle id="-flow-random-route-a10433a3-c369-4b43-9af6-913271ad15b6--8338683607907784385-26-0.2" type="actor-car--7277549907456295346" depart="240.00" departLane="0" departPos="43.54" departSpeed="max" arrivalLane="1" arrivalPos="4.28">
        <route edges="edge-east-EN edge-north-NW gneE41"/>
    </vehicle>
    <vehicle id="-flow-random-route-a77e7995-e7a4-48b1-9d0a-74057d867da7--8338683607907784385-1-0.2" type="actor-car--7277549907456295346" depart="240.00" departLane="1" departPos="53.49" departSpeed="max" arrivalLane="0" arrivalPos="99.01">
        <route edges="gneE14 gneE13 edge-south-SE edge-east-EN edge-north-NW gneE41 gneE42 gneE51 -gneE48 -gneE37"/>
    </vehicle>
    <vehicle id="-flow-random-route-ae32674e-6f12-48e9-ae17-261f383e2333--8338683607907784385-22-0.2" type="actor-car--7277549907456295346" depart="240.00" departLane="1" departPos="52.92" departSpeed="max" arrivalLane="0" arrivalPos="25.87">
        <route edges="edge-east-EN edge-north-NW edge-west-WS edge-south-SE edge-east-EN gneE36 gneE37 gneE48 gneE53 gneE14"/>
    </vehicle>
    <vehicle id="-flow-random-route-b65c0177-bf99-4fcc-955d-f2732b1913c2--8338683607907784385-11-0.2" type="actor-car--7277549907456295346" depart="240.00" departLane="0" departPos="8.62" departSpeed="max" arrivalLane="1" arrivalPos="65.00">
        <route edges="gneE41 gneE42 gneE51 -gneE48 -gneE37 -gneE36 edge-north-NW edge-west-WS edge-south-SE edge-east-EN"/>
    </vehicle>
    <vehicle id="-flow-random-route-c4891b59-ca57-4bbf-8784-23942130f6b6--8338683607907784385-24-0.2" type="actor-car--7277549907456295346" depart="240.00" departLane="1" departPos="12.16" departSpeed="max" arrivalLane="0" arrivalPos="77.64">
        <route edges="gneE51 -gneE48 -gneE37"/>
    </vehicle>
    <vehicle id="-flow-random-route-d0f92929-c1a2-4a13-bcea-b6f06e4c5bf6--8338683607907784385-21-0.2" type="actor-car--7277549907456295346" depart="240.00" departLane="0" departPos="10.65" departSpeed="max" arrivalLane="1" arrivalPos="6.38">
        <route edges="gneE48 gneE53 gneE14 gneE13 edge-south-SE edge-east-EN"/>
    </vehicle>
    <vehicle id="-flow-random-route-d366e227-4cd7-47ad-9bd9-7f08e3510b0c--8338683607907784385-8-0.2" type="actor-car--7277549907456295346" depart="240.00" departLane="0" departPos="40.41" departSpeed="max" arrivalLane="0" arrivalPos="38.44">
        <route edges="gneE13 edge-south-SE"/>
    </vehicle>
    <vehicle id="-flow-random-route-d4b1a011-d725-416d-9bd5-348190a59429--8338683607907784385-23-0.2" type="actor-car--7277549907456295346" depart="240.00" departLane="0" departPos="50.79" departSpeed="max" arrivalLane="0" arrivalPos="47.09">
        <route edges="gneE42 gneE51 -gneE48"/>
    </vehicle>