<?xml version="1.0" encoding="UTF-8"?>

<!-- generated on Sun Aug 16 11:47:20 2020 by Eclipse SUMO duarouter Version 1.6.0
<configuration xmlns:xsi="http://www.w3.org/2001/XMLSchema-instance" xsi:noNamespaceSchemaLocation="http://sumo.dlr.de/xsd/duarouterConfiguration.xsd">

    <input>
        <net-file value="dataset_public/merge_loop/merge_a/map.net.xml"/>
        <route-files value="/tmp/tmprsrkidoq/trips.trips.xml"/>
    </input>

    <output>
        <output-file value="dataset_public/merge_loop/merge_a/traffic/30_patient_car.rou.xml"/>
        <alternatives-output value="dataset_public/merge_loop/merge_a/traffic/30_patient_car.rou.alt.xml"/>
    </output>

    <processing>
        <unsorted-input value="true"/>
        <repair value="true"/>
    </processing>

    <report>
        <error-log value="/tmp/smarts/_duarouter_routing/traffic/30_patient_car.log"/>
        <no-step-log value="true"/>
    </report>

    <random_number>
        <seed value="42"/>
    </random_number>

</configuration>
-->

<routes xmlns:xsi="http://www.w3.org/2001/XMLSchema-instance" xsi:noNamespaceSchemaLocation="http://sumo.dlr.de/xsd/routes_file.xsd">
    <vType id="actor-car--2382359619448569487" minGap="2.50" speedFactor="normc(0.50,0.20,0.20,2.00)" vClass="passenger" impatience="0.50" lcCooperative="0.5" lcImpatience="0" jmDriveAfterYellowTime="1.0" accel="2.6" decel="4.5" sigma="0.5"/>
    <vehicle id="-flow-random-route-0b4a088d-e63f-407c-916c-f4f05c6d9f3b--8345446476287485027-10-0.0" type="actor-car--2382359619448569487" depart="0.00" departLane="0" departPos="28.73" departSpeed="max" arrivalLane="1" arrivalPos="79.57">
        <route edges="gneE16 gneE7.117 gneE10"/>
    </vehicle>
    <vehicle id="-flow-random-route-0d014617-d28e-4ded-a69e-d761b0d3964d--8345446476287485027-18-0.0" type="actor-car--2382359619448569487" depart="0.00" departLane="1" departPos="86.24" departSpeed="max" arrivalLane="0" arrivalPos="123.11">
        <route edges="gneE1.12 gneE5 gneE7 gneE7.117 gneE7.141 gneE8 gneE9 gneE2 gneE1 gneE16"/>
    </vehicle>
    <vehicle id="-flow-random-route-1458f438-7a3e-4bb7-a9b1-374934c6fac0--8345446476287485027-1-0.0" type="actor-car--2382359619448569487" depart="0.00" departLane="0" departPos="54.68" departSpeed="max" arrivalLane="0" arrivalPos="45.78">
        <route edges="gneE7.141 gneE8 gneE9 gneE2 gneE1 gneE1.12 gneE5 gneE7 gneE7.117 gneE10"/>
    </vehicle>
    <vehicle id="-flow-random-route-1a69e740-f012-4913-95bd-9b8ee77453f1--8345446476287485027-21-0.0" type="actor-car--2382359619448569487" depart="0.00" departLane="1" departPos="57.92" departSpeed="max" arrivalLane="1" arrivalPos="35.13">
        <route edges="gneE7.117 gneE10 gneE3 gneE1 gneE16 gneE7.117 gneE7.141 gneE8 gneE9 gneE2"/>
    </vehicle>
    <vehicle id="-flow-random-route-1f2c295b-73ef-44e0-883f-a34a2a841c79--8345446476287485027-11-0.0" type="actor-car--2382359619448569487" depart="0.00" departLane="1" departPos="101.44" departSpeed="max" arrivalLane="0" arrivalPos="32.83">
        <route edges="gneE1.12 gneE5 gneE7 gneE7.117 gneE7.141 gneE8 gneE9 gneE2 gneE1 gneE16"/>
    </vehicle>
    <vehicle id="-flow-random-route-228a067b-2d1f-491f-8622-3e4bd14ed3e5--8345446476287485027-12-0.0" type="actor-car--2382359619448569487" depart="0.00" departLane="0" departPos="3.52" departSpeed="max" arrivalLane="0" arrivalPos="170.89">
        <route edges="gneE7.117 gneE7.141 gneE8"/>
    </vehicle>
    <vehicle id="-flow-random-route-2ca7fe58-882d-45fa-a52e-ee854ae41569--8345446476287485027-24-0.0" type="actor-car--2382359619448569487" depart="0.00" departLane="0" departPos="52.27" departSpeed="max" arrivalLane="1" arrivalPos="28.92">
        <route edges="gneE5 gneE7 gneE7.117 gneE10 gneE3"/>
    </vehicle>
    <vehicle id="-flow-random-route-2cda51be-340a-4d79-9d3a-70c786bba45d--8345446476287485027-23-0.0" type="actor-car--2382359619448569487" depart="0.00" departLane="1" departPos="51.03" departSpeed="max" arrivalLane="1" arrivalPos="9.22">
        <route edges="gneE9 gneE2 gneE1"/>
    </vehicle>
    <vehicle id="-flow-random-route-2d3063ff-e50b-447a-b67a-56fcab6b1a2b--8345446476287485027-20-0.0" type="actor-car--2382359619448569487" depart="0.00" departLane="1" departPos="10.60" departSpeed="max" arrivalLane="1" arrivalPos="51.84">
        <route edges="gneE7.141 gneE8 gneE9 gneE2 gneE1 gneE1.12 gneE5 gneE7 gneE7.117 gneE10"/>
    </vehicle>
    <vehicle id="-flow-random-route-37848641-04c4-41fa-aff4-e253a1a80f58--8345446476287485027-8-0.0" type="actor-car--2382359619448569487" depart="0.00" departLane="0" departPos="44.91" departSpeed="max" arrivalLane="0" arrivalPos="71.29">
        <route edges="gneE2 gneE1 gneE16"/>
    </vehicle>
    <vehicle id="-flow-random-route-3a91e82b-0dcf-4583-a331-7e3f3beb1457--8345446476287485027-16-0.0" type="actor-car--2382359619448569487" depart="0.00" departLane="0" departPos="10.39" departSpeed="max" arrivalLane="0" arrivalPos="19.22">
        <route edges="gneE3 gneE1 gneE1.12 gneE5 gneE7 gneE7.117 gneE10 gneE3 gneE1 gneE16"/>
    </vehicle>
    <vehicle id="-flow-random-route-3e6b25f1-51dd-47e7-bdb5-02fe08be0ec8--8345446476287485027-27-0.0" type="actor-car--2382359619448569487" depart="0.00" departLane="0" departPos="80.76" departSpeed="max" arrivalLane="1" arrivalPos="8.62">
        <route edges="gneE9 gneE2 gneE1 gneE1.12 gneE5 gneE7 gneE7.117 gneE7.141 gneE8 gneE9"/>
    </vehicle>
    <vehicle id="-flow-random-route-45db207a-60f5-4284-924c-1877e354245e--8345446476287485027-17-0.0" type="actor-car--2382359619448569487" depart="0.00" departLane="1" departPos="78.44" departSpeed="max" arrivalLane="0" arrivalPos="6.23">
        <route edges="gneE5 gneE7 gneE7.117 gneE7.141 gneE8 gneE9 gneE2 gneE1 gneE1.12 gneE5"/>
    </vehicle>
    <vehicle id="-flow-random-route-47acad94-569b-4f2c-884c-c8175f07b993--8345446476287485027-19-0.0" type="actor-car--2382359619448569487" depart="0.00" departLane="1" departPos="41.46" departSpeed="max" arrivalLane="0" arrivalPos="12.18">
        <route edges="gneE5 gneE7 gneE7.117 gneE10 gneE3"/>
    </vehicle>
    <vehicle id="-flow-random-route-50728441-09cb-482f-b5ec-2fd1e844b90e--8345446476287485027-22-0.0" type="actor-car--2382359619448569487" depart="0.00" departLane="1" departPos="139.88" departSpeed="max" arrivalLane="0" arrivalPos="27.74">
        <route edges="gneE7.117 gneE10 gneE3"/>
    </vehicle>
    <vehicle id="-flow-random-route-5947d71b-df38-402e-9d1f-aa42b9a7fab3--8345446476287485027-15-0.0" type="actor-car--2382359619448569487" depart="0.00" departLane="0" departPos="152.32" departSpeed="max" arrivalLane="1" arrivalPos="31.01">
        <route edges="gneE8 gneE9 gneE2 gneE1 gneE1.12 gneE5 gneE7 gneE7.117 gneE7.141 gneE8"/>
    </vehicle>
    <vehicle id="-flow-random-route-6494a5f7-8355-472b-9f6b-5df89ed64a6a--8345446476287485027-9-0.0" type="actor-car--2382359619448569487" depart="0.00" departLane="0" departPos="25.80" departSpeed="max" arrivalLane="0" arrivalPos="131.61">
        <route edges="gneE5 gneE7 gneE7.117 gneE7.141 gneE8 gneE9 gneE2 gneE1 gneE1.12 gneE5"/>
    </vehicle>
    <vehicle id="-flow-random-route-675801fb-a164-4653-a991-e580200526fa--8345446476287485027-25-0.0" type="actor-car--2382359619448569487" depart="0.00" departLane="1" departPos="75.70" departSpeed="max" arrivalLane="1" arrivalPos="20.39">
        <route edges="gneE9 gneE2 gneE1"/>
    </vehicle>
    <vehicle id="-flow-random-route-a44b136f-afd0-463d-b0a6-c90337dc68f4--8345446476287485027-28-0.0" type="actor-car--2382359619448569487" depart="0.00" departLane="0" departPos="63.04" departSpeed="max" arrivalLane="0" arrivalPos="19.94">
        <route edges="gneE7.141 gneE8 gneE9 gneE2 gneE1 gneE1.12 gneE5 gneE7 gneE7.117 gneE10"/>
    </vehicle>
    <vehicle id="-flow-random-route-a46cb1a1-f521-408e-ad35-8dfdf12fe71e--8345446476287485027-4-0.0" type="actor-car--2382359619448569487" depart="0.00" departLane="0" departPos="101.00" departSpeed="max" arrivalLane="1" arrivalPos="35.45">
        <route edges="gneE16 gneE7.117 gneE10 gneE3 gneE1"/>
    </vehicle>
    <vehicle id="-flow-random-route-a59dcf42-fa24-4095-9845-7c2905cdc2f2--8345446476287485027-13-0.0" type="actor-car--2382359619448569487" depart="0.00" departLane="1" departPos="8.63" departSpeed="max" arrivalLane="0" arrivalPos="29.86">
        <route edges="gneE1 gneE1.12 gneE5 gneE7 gneE7.117 gneE7.141 gneE8 gneE9 gneE2 gneE1"/>
    </vehicle>
    <vehicle id="-flow-random-route-ad0adaed-a27d-4634-aa25-67517428e499--8345446476287485027-3-0.0" type="actor-car--2382359619448569487" depart="0.00" departLane="0" departPos="0.98" departSpeed="max" arrivalLane="0" arrivalPos="31.10">
        <route edges="gneE5 gneE7 gneE7.117 gneE7.141 gneE8 gneE9 gneE2 gneE1 gneE1.12 gneE5"/>
    </vehicle>
    <vehicle id="-flow-random-route-ae692830-42eb-466d-8f79-549befbf1128--8345446476287485027-6-0.0" type="actor-car--2382359619448569487" depart="0.00" departLane="0" departPos="142.73" departSpeed="max" arrivalLane="1" arrivalPos="25.42">
        <route edges="gneE8 gneE9 gneE2"/>
    </vehicle>
    <vehicle id="-flow-random-route-c786c7ad-3255-4a70-9e3c-6d8eaffa2dc6--8345446476287485027-26-0.0" type="actor-car--2382359619448569487" depart="0.00" departLane="0" departPos="127.37" departSpeed="max" arrivalLane="0" arrivalPos="60.15">
        <route edges="gneE16 gneE7.117 gneE10 gneE3 gneE1 gneE16 gneE7.117 gneE7.141 gneE8 gneE9"/>
    </vehicle>
    <vehicle id="-flow-random-route-cc9d85e7-1fa2-44da-b323-9fcfd4edcb22--8345446476287485027-14-0.0" type="actor-car--2382359619448569487" depart="0.00" departLane="1" departPos="32.90" departSpeed="max" arrivalLane="1" arrivalPos="94.52">
        <route edges="gneE1.12 gneE5 gneE7 gneE7.117 gneE10"/>
    </vehicle>
    <vehicle id="-flow-random-route-cd282e04-2e7e-4975-9346-24d5c2f8c5e6--8345446476287485027-0-0.0" type="actor-car--2382359619448569487" depart="0.00" departLane="0" departPos="22.38" departSpeed="max" arrivalLane="0" arrivalPos="75.84">
        <route edges="gneE7 gneE7.117 gneE10 gneE3 gneE1 gneE16 gneE7.117 gneE7.141 gneE8 gneE9"/>
    </vehicle>
    <vehicle id="-flow-random-route-d8d1d37e-fda4-433b-a2c5-7bd2e220110c--8345446476287485027-7-0.0" type="actor-car--2382359619448569487" depart="0.00" departLane="0" departPos="63.76" departSpeed="max" arrivalLane="1" arrivalPos="49.06">
        <route edges="gneE16 gneE7.117 gneE7.141 gneE8 gneE9 gneE2 gneE1 gneE1.12 gneE5 gneE7"/>
    </vehicle>
    <vehicle id="-flow-random-route-dcbe8ce6-20db-4ddb-939d-43220f973e36--8345446476287485027-29-0.0" type="actor-car--2382359619448569487" depart="0.00" departLane="0" departPos="46.08" departSpeed="max" arrivalLane="1" arrivalPos="9.68">
        <route edges="gneE10 gneE3 gneE1"/>
    </vehicle>
    <vehicle id="-flow-random-route-df43998e-e888-426f-918b-dd3aa6eb9c87--8345446476287485027-5-0.0" type="actor-car--2382359619448569487" depart="0.00" departLane="0" departPos="32.02" departSpeed="max" arrivalLane="0" arrivalPos="63.63">
        <route edges="gneE2 gneE1 gneE16 gneE7.117 gneE10"/>
    </vehicle>
    <vehicle id="-flow-random-route-e9b8cafe-5810-481d-be77-d432ac7bbd57--8345446476287485027-2-0.0" type="actor-car--2382359619448569487" depart="0.00" departLane="0" departPos="110.65" departSpeed="max" arrivalLane="1" arrivalPos="10.24">
        <route edges="gneE8 gneE9 gneE2"/>
    </vehicle>
    <vehicle id="-flow-random-route-0b4a088d-e63f-407c-916c-f4f05c6d9f3b--8345446476287485027-10-0.1" type="actor-car--2382359619448569487" depart="120.00" departLane="0" departPos="28.73" departSpeed="max" arrivalLane="1" arrivalPos="79.57">
        <route edges="gneE16 gneE7.117 gneE10"/>
    </vehicle>
    <vehicle id="-flow-random-route-0d014617-d28e-4ded-a69e-d761b0d3964d--8345446476287485027-18-0.1" type="actor-car--2382359619448569487" depart="120.00" departLane="1" departPos="86.24" departSpeed="max" arrivalLane="0" arrivalPos="123.11">
        <route edges="gneE1.12 gneE5 gneE7 gneE7.117 gneE7.141 gneE8 gneE9 gneE2 gneE1 gneE16"/>
    </vehicle>
    <vehicle id="-flow-random-route-1458f438-7a3e-4bb7-a9b1-374934c6fac0--8345446476287485027-1-0.1" type="actor-car--2382359619448569487" depart="120.00" departLane="0" departPos="54.68" departSpeed="max" arrivalLane="0" arrivalPos="45.78">
        <route edges="gneE7.141 gneE8 gneE9 gneE2 gneE1 gneE1.12 gneE5 gneE7 gneE7.117 gneE10"/>
    </vehicle>
    <vehicle id="-flow-random-route-1a69e740-f012-4913-95bd-9b8ee77453f1--8345446476287485027-21-0.1" type="actor-car--2382359619448569487" depart="120.00" departLane="1" departPos="57.92" departSpeed="max" arrivalLane="1" arrivalPos="35.13">
        <route edges="gneE7.117 gneE10 gneE3 gneE1 gneE16 gneE7.117 gneE7.141 gneE8 gneE9 gneE2"/>
    </vehicle>
    <vehicle id="-flow-random-route-1f2c295b-73ef-44e0-883f-a34a2a841c79--8345446476287485027-11-0.1" type="actor-car--2382359619448569487" depart="120.00" departLane="1" departPos="101.44" departSpeed="max" arrivalLane="0" arrivalPos="32.83">
        <route edges="gneE1.12 gneE5 gneE7 gneE7.117 gneE7.141 gneE8 gneE9 gneE2 gneE1 gneE16"/>
    </vehicle>
    <vehicle id="-flow-random-route-228a067b-2d1f-491f-8622-3e4bd14ed3e5--8345446476287485027-12-0.1" type="actor-car--2382359619448569487" depart="120.00" departLane="0" departPos="3.52" departSpeed="max" arrivalLane="0" arrivalPos="170.89">
        <route edges="gneE7.117 gneE7.141 gneE8"/>
    </vehicle>
    <vehicle id="-flow-random-route-2ca7fe58-882d-45fa-a52e-ee854ae41569--8345446476287485027-24-0.1" type="actor-car--2382359619448569487" depart="120.00" departLane="0" departPos="52.27" departSpeed="max" arrivalLane="1" arrivalPos="28.92">
        <route edges="gneE5 gneE7 gneE7.117 gneE10 gneE3"/>
    </vehicle>
    <vehicle id="-flow-random-route-2cda51be-340a-4d79-9d3a-70c786bba45d--8345446476287485027-23-0.1" type="actor-car--2382359619448569487" depart="120.00" departLane="1" departPos="51.03" departSpeed="max" arrivalLane="1" arrivalPos="9.22">
        <route edges="gneE9 gneE2 gneE1"/>
    </vehicle>
    <vehicle id="-flow-random-route-2d3063ff-e50b-447a-b67a-56fcab6b1a2b--8345446476287485027-20-0.1" type="actor-car--2382359619448569487" depart="120.00" departLane="1" departPos="10.60" departSpeed="max" arrivalLane="1" arrivalPos="51.84">
        <route edges="gneE7.141 gneE8 gneE9 gneE2 gneE1 gneE1.12 gneE5 gneE7 gneE7.117 gneE10"/>
    </vehicle>
    <vehicle id="-flow-random-route-37848641-04c4-41fa-aff4-e253a1a80f58--8345446476287485027-8-0.1" type="actor-car--2382359619448569487" depart="120.00" departLane="0" departPos="44.91" departSpeed="max" arrivalLane="0" arrivalPos="71.29">
        <route edges="gneE2 gneE1 gneE16"/>
    </vehicle>
    <vehicle id="-flow-random-route-3a91e82b-0dcf-4583-a331-7e3f3beb1457--8345446476287485027-16-0.1" type="actor-car--2382359619448569487" depart="120.00" departLane="0" departPos="10.39" departSpeed="max" arrivalLane="0" arrivalPos="19.22">
        <route edges="gneE3 gneE1 gneE1.12 gneE5 gneE7 gneE7.117 gneE10 gneE3 gneE1 gneE16"/>
    </vehicle>
    <vehicle id="-flow-random-route-3e6b25f1-51dd-47e7-bdb5-02fe08be0ec8--8345446476287485027-27-0.1" type="actor-car--2382359619448569487" depart="120.00" departLane="0" departPos="80.76" departSpeed="max" arrivalLane="1" arrivalPos="8.62">
        <route edges="gneE9 gneE2 gneE1 gneE1.12 gneE5 gneE7 gneE7.117 gneE7.141 gneE8 gneE9"/>
    </vehicle>
    <vehicle id="-flow-random-route-45db207a-60f5-4284-924c-1877e354245e--8345446476287485027-17-0.1" type="actor-car--2382359619448569487" depart="120.00" departLane="1" departPos="78.44" departSpeed="max" arrivalLane="0" arrivalPos="6.23">
        <route edges="gneE5 gneE7 gneE7.117 gneE7.141 gneE8 gneE9 gneE2 gneE1 gneE1.12 gneE5"/>
    </vehicle>
    <vehicle id="-flow-random-route-47acad94-569b-4f2c-884c-c8175f07b993--8345446476287485027-19-0.1" type="actor-car--2382359619448569487" depart="120.00" departLane="1" departPos="41.46" departSpeed="max" arrivalLane="0" arrivalPos="12.18">
        <route edges="gneE5 gneE7 gneE7.117 gneE10 gneE3"/>
    </vehicle>
    <vehicle id="-flow-random-route-50728441-09cb-482f-b5ec-2fd1e844b90e--8345446476287485027-22-0.1" type="actor-car--2382359619448569487" depart="120.00" departLane="1" departPos="139.88" departSpeed="max" arrivalLane="0" arrivalPos="27.74">
        <route edges="gneE7.117 gneE10 gneE3"/>
    </vehicle>
    <vehicle id="-flow-random-route-5947d71b-df38-402e-9d1f-aa42b9a7fab3--8345446476287485027-15-0.1" type="actor-car--2382359619448569487" depart="120.00" departLane="0" departPos="152.32" departSpeed="max" arrivalLane="1" arrivalPos="31.01">
        <route edges="gneE8 gneE9 gneE2 gneE1 gneE1.12 gneE5 gneE7 gneE7.117 gneE7.141 gneE8"/>
    </vehicle>
    <vehicle id="-flow-random-route-6494a5f7-8355-472b-9f6b-5df89ed64a6a--8345446476287485027-9-0.1" type="actor-car--2382359619448569487" depart="120.00" departLane="0" departPos="25.80" departSpeed="max" arrivalLane="0" arrivalPos="131.61">
        <route edges="gneE5 gneE7 gneE7.117 gneE7.141 gneE8 gneE9 gneE2 gneE1 gneE1.12 gneE5"/>
    </vehicle>
    <vehicle id="-flow-random-route-675801fb-a164-4653-a991-e580200526fa--8345446476287485027-25-0.1" type="actor-car--2382359619448569487" depart="120.00" departLane="1" departPos="75.70" departSpeed="max" arrivalLane="1" arrivalPos="20.39">
        <route edges="gneE9 gneE2 gneE1"/>
    </vehicle>
    <vehicle id="-flow-random-route-a44b136f-afd0-463d-b0a6-c90337dc68f4--8345446476287485027-28-0.1" type="actor-car--2382359619448569487" depart="120.00" departLane="0" departPos="63.04" departSpeed="max" arrivalLane="0" arrivalPos="19.94">
        <route edges="gneE7.141 gneE8 gneE9 gneE2 gneE1 gneE1.12 gneE5 gneE7 gneE7.117 gneE10"/>
    </vehicle>
    <vehicle id="-flow-random-route-a46cb1a1-f521-408e-ad35-8dfdf12fe71e--8345446476287485027-4-0.1" type="actor-car--2382359619448569487" depart="120.00" departLane="0" departPos="101.00" departSpeed="max" arrivalLane="1" arrivalPos="35.45">
        <route edges="gneE16 gneE7.117 gneE10 gneE3 gneE1"/>
    </vehicle>
    <vehicle id="-flow-random-route-a59dcf42-fa24-4095-9845-7c2905cdc2f2--8345446476287485027-13-0.1" type="actor-car--2382359619448569487" depart="120.00" departLane="1" departPos="8.63" departSpeed="max" arrivalLane="0" arrivalPos="29.86">
        <route edges="gneE1 gneE1.12 gneE5 gneE7 gneE7.117 gneE7.141 gneE8 gneE9 gneE2 gneE1"/>
    </vehicle>
    <vehicle id="-flow-random-route-ad0adaed-a27d-4634-aa25-67517428e499--8345446476287485027-3-0.1" type="actor-car--2382359619448569487" depart="120.00" departLane="0" departPos="0.98" departSpeed="max" arrivalLane="0" arrivalPos="31.10">
        <route edges="gneE5 gneE7 gneE7.117 gneE7.141 gneE8 gneE9 gneE2 gneE1 gneE1.12 gneE5"/>
    </vehicle>
    <vehicle id="-flow-random-route-ae692830-42eb-466d-8f79-549befbf1128--8345446476287485027-6-0.1" type="actor-car--2382359619448569487" depart="120.00" departLane="0" departPos="142.73" departSpeed="max" arrivalLane="1" arrivalPos="25.42">
        <route edges="gneE8 gneE9 gneE2"/>
    </vehicle>
    <vehicle id="-flow-random-route-c786c7ad-3255-4a70-9e3c-6d8eaffa2dc6--8345446476287485027-26-0.1" type="actor-car--2382359619448569487" depart="120.00" departLane="0" departPos="127.37" departSpeed="max" arrivalLane="0" arrivalPos="60.15">
        <route edges="gneE16 gneE7.117 gneE10 gneE3 gneE1 gneE16 gneE7.117 gneE7.141 gneE8 gneE9"/>
    </vehicle>
    <vehicle id="-flow-random-route-cc9d85e7-1fa2-44da-b323-9fcfd4edcb22--8345446476287485027-14-0.1" type="actor-car--2382359619448569487" depart="120.00" departLane="1" departPos="32.90" departSpeed="max" arrivalLane="1" arrivalPos="94.52">
        <route edges="gneE1.12 gneE5 gneE7 gneE7.117 gneE10"/>
    </vehicle>
    <vehicle id="-flow-random-route-cd282e04-2e7e-4975-9346-24d5c2f8c5e6--8345446476287485027-0-0.1" type="actor-car--2382359619448569487" depart="120.00" departLane="0" departPos="22.38" departSpeed="max" arrivalLane="0" arrivalPos="75.84">
        <route edges="gneE7 gneE7.117 gneE10 gneE3 gneE1 gneE16 gneE7.117 gneE7.141 gneE8 gneE9"/>
    </vehicle>
    <vehicle id="-flow-random-route-d8d1d37e-fda4-433b-a2c5-7bd2e220110c--8345446476287485027-7-0.1" type="actor-car--2382359619448569487" depart="120.00" departLane="0" departPos="63.76" departSpeed="max" arrivalLane="1" arrivalPos="49.06">
        <route edges="gneE16 gneE7.117 gneE7.141 gneE8 gneE9 gneE2 gneE1 gneE1.12 gneE5 gneE7"/>
    </vehicle>
    <vehicle id="-flow-random-route-dcbe8ce6-20db-4ddb-939d-43220f973e36--8345446476287485027-29-0.1" type="actor-car--2382359619448569487" depart="120.00" departLane="0" departPos="46.08" departSpeed="max" arrivalLane="1" arrivalPos="9.68">
        <route edges="gneE10 gneE3 gneE1"/>
    </vehicle>
    <vehicle id="-flow-random-route-df43998e-e888-426f-918b-dd3aa6eb9c87--8345446476287485027-5-0.1" type="actor-car--2382359619448569487" depart="120.00" departLane="0" departPos="32.02" departSpeed="max" arrivalLane="0" arrivalPos="63.63">
        <route edges="gneE2 gneE1 gneE16 gneE7.117 gneE10"/>
    </vehicle>
    <vehicle id="-flow-random-route-e9b8cafe-5810-481d-be77-d432ac7bbd57--8345446476287485027-2-0.1" type="actor-car--2382359619448569487" depart="120.00" departLane="0" departPos="110.65" departSpeed="max" arrivalLane="1" arrivalPos="10.24">
        <route edges="gneE8 gneE9 gneE2"/>
    </vehicle>
    <vehicle id="-flow-random-route-0b4a088d-e63f-407c-916c-f4f05c6d9f3b--8345446476287485027-10-0.2" type="actor-car--2382359619448569487" depart="240.00" departLane="0" departPos="28.73" departSpeed="max" arrivalLane="1" arrivalPos="79.57">
        <route edges="gneE16 gneE7.117 gneE10"/>
    </vehicle>
    <vehicle id="-flow-random-route-0d014617-d28e-4ded-a69e-d761b0d3964d--8345446476287485027-18-0.2" type="actor-car--2382359619448569487" depart="240.00" departLane="1" departPos="86.24" departSpeed="max" arrivalLane="0" arrivalPos="123.11">
        <route edges="gneE1.12 gneE5 gneE7 gneE7.117 gneE7.141 gneE8 gneE9 gneE2 gneE1 gneE16"/>
    </vehicle>
    <vehicle id="-flow-random-route-1458f438-7a3e-4bb7-a9b1-374934c6fac0--8345446476287485027-1-0.2" type="actor-car--2382359619448569487" depart="240.00" departLane="0" departPos="54.68" departSpeed="max" arrivalLane="0" arrivalPos="45.78">
        <route edges="gneE7.141 gneE8 gneE9 gneE2 gneE1 gneE1.12 gneE5 gneE7 gneE7.117 gneE10"/>
    </vehicle>
    <vehicle id="-flow-random-route-1a69e740-f012-4913-95bd-9b8ee77453f1--8345446476287485027-21-0.2" type="actor-car--2382359619448569487" depart="240.00" departLane="1" departPos="57.92" departSpeed="max" arrivalLane="1" arrivalPos="35.13">
        <route edges="gneE7.117 gneE10 gneE3 gneE1 gneE16 gneE7.117 gneE7.141 gneE8 gneE9 gneE2"/>
    </vehicle>
    <vehicle id="-flow-random-route-1f2c295b-73ef-44e0-883f-a34a2a841c79--8345446476287485027-11-0.2" type="actor-car--2382359619448569487" depart="240.00" departLane="1" departPos="101.44" departSpeed="max" arrivalLane="0" arrivalPos="32.83">
        <route edges="gneE1.12 gneE5 gneE7 gneE7.117 gneE7.141 gneE8 gneE9 gneE2 gneE1 gneE16"/>
    </vehicle>
    <vehicle id="-flow-random-route-228a067b-2d1f-491f-8622-3e4bd14ed3e5--8345446476287485027-12-0.2" type="actor-car--2382359619448569487" depart="240.00" departLane="0" departPos="3.52" departSpeed="max" arrivalLane="0" arrivalPos="170.89">
        <route edges="gneE7.117 gneE7.141 gneE8"/>
    </vehicle>
    <vehicle id="-flow-random-route-2ca7fe58-882d-45fa-a52e-ee854ae41569--8345446476287485027-24-0.2" type="actor-car--2382359619448569487" depart="240.00" departLane="0" departPos="52.27" departSpeed="max" arrivalLane="1" arrivalPos="28.92">
        <route edges="gneE5 gneE7 gneE7.117 gneE10 gneE3"/>
    </vehicle>
    <vehicle id="-flow-random-route-2cda51be-340a-4d79-9d3a-70c786bba45d--8345446476287485027-23-0.2" type="actor-car--2382359619448569487" depart="240.00" departLane="1" departPos="51.03" departSpeed="max" arrivalLane="1" arrivalPos="9.22">
        <route edges="gneE9 gneE2 gneE1"/>
    </vehicle>
    <vehicle id="-flow-random-route-2d3063ff-e50b-447a-b67a-56fcab6b1a2b--8345446476287485027-20-0.2" type="actor-car--2382359619448569487" depart="240.00" departLane="1" departPos="10.60" departSpeed="max" arrivalLane="1" arrivalPos="51.84">
        <route edges="gneE7.141 gneE8 gneE9 gneE2 gneE1 gneE1.12 gneE5 gneE7 gneE7.117 gneE10"/>
    </vehicle>
    <vehicle id="-flow-random-route-37848641-04c4-41fa-aff4-e253a1a80f58--8345446476287485027-8-0.2" type="actor-car--2382359619448569487" depart="240.00" departLane="0" departPos="44.91" departSpeed="max" arrivalLane="0" arrivalPos="71.29">
        <route edges="gneE2 gneE1 gneE16"/>
    </vehicle>
    <vehicle id="-flow-random-route-3a91e82b-0dcf-4583-a331-7e3f3beb1457--8345446476287485027-16-0.2" type="actor-car--2382359619448569487" depart="240.00" departLane="0" departPos="10.39" departSpeed="max" arrivalLane="0" arrivalPos="19.22">
        <route edges="gneE3 gneE1 gneE1.12 gneE5 gneE7 gneE7.117 gneE10 gneE3 gneE1 gneE16"/>
    </vehicle>
    <vehicle id="-flow-random-route-3e6b25f1-51dd-47e7-bdb5-02fe08be0ec8--8345446476287485027-27-0.2" type="actor-car--2382359619448569487" depart="240.00" departLane="0" departPos="80.76" departSpeed="max" arrivalLane="1" arrivalPos="8.62">
        <route edges="gneE9 gneE2 gneE1 gneE1.12 gneE5 gneE7 gneE7.117 gneE7.141 gneE8 gneE9"/>
    </vehicle>
    <vehicle id="-flow-random-route-45db207a-60f5-4284-924c-1877e354245e--8345446476287485027-17-0.2" type="actor-car--2382359619448569487" depart="240.00" departLane="1" departPos="78.44" departSpeed="max" arrivalLane="0" arrivalPos="6.23">
        <route edges="gneE5 gneE7 gneE7.117 gneE7.141 gneE8 gneE9 gneE2 gneE1 gneE1.12 gneE5"/>
    </vehicle>
    <vehicle id="-flow-random-route-47acad94-569b-4f2c-884c-c8175f07b993--8345446476287485027-19-0.2" type="actor-car--2382359619448569487" depart="240.00" departLane="1" departPos="41.46" departSpeed="max" arrivalLane="0" arrivalPos="12.18">
        <route edges="gneE5 gneE7 gneE7.117 gneE10 gneE3"/>
    </vehicle>
    <vehicle id="-flow-random-route-50728441-09cb-482f-b5ec-2fd1e844b90e--8345446476287485027-22-0.2" type="actor-car--2382359619448569487" depart="240.00" departLane="1" departPos="139.88" departSpeed="max" arrivalLane="0" arrivalPos="27.74">
        <route edges="gneE7.117 gneE10 gneE3"/>
    </vehicle>
    <vehicle id="-flow-random-route-5947d71b-df38-402e-9d1f-aa42b9a7fab3--8345446476287485027-15-0.2" type="actor-car--2382359619448569487" depart="240.00" departLane="0" departPos="152.32" departSpeed="max" arrivalLane="1" arrivalPos="31.01">
        <route edges="gneE8 gneE9 gneE2 gneE1 gneE1.12 gneE5 gneE7 gneE7.117 gneE7.141 gneE8"/>
    </vehicle>
    <vehicle id="-flow-random-route-6494a5f7-8355-472b-9f6b-5df89ed64a6a--8345446476287485027-9-0.2" type="actor-car--2382359619448569487" depart="240.00" departLane="0" departPos="25.80" departSpeed="max" arrivalLane="0" arrivalPos="131.61">
        <route edges="gneE5 gneE7 gneE7.117 gneE7.141 gneE8 gneE9 gneE2 gneE1 gneE1.12 gneE5"/>
    </vehicle>
    <vehicle id="-flow-random-route-675801fb-a164-4653-a991-e580200526fa--8345446476287485027-25-0.2" type="actor-car--2382359619448569487" depart="240.00" departLane="1" departPos="75.70" departSpeed="max" arrivalLane="1" arrivalPos="20.39">
        <route edges="gneE9 gneE2 gneE1"/>
    </vehicle>
    <vehicle id="-flow-random-route-a44b136f-afd0-463d-b0a6-c90337dc68f4--8345446476287485027-28-0.2" type="actor-car--2382359619448569487" depart="240.00" departLane="0" departPos="63.04" departSpeed="max" arrivalLane="0" arrivalPos="19.94">
        <route edges="gneE7.141 gneE8 gneE9 gneE2 gneE1 gneE1.12 gneE5 gneE7 gneE7.117 gneE10"/>
    </vehicle>
    <vehicle id="-flow-random-route-a46cb1a1-f521-408e-ad35-8dfdf12fe71e--8345446476287485027-4-0.2" type="actor-car--2382359619448569487" depart="240.00" departLane="0" departPos="101.00" departSpeed="max" arrivalLane="1" arrivalPos="35.45">
        <route edges="gneE16 gneE7.117 gneE10 gneE3 gneE1"/>
    </vehicle>
    <vehicle id="-flow-random-route-a59dcf42-fa24-4095-9845-7c2905cdc2f2--8345446476287485027-13-0.2" type="actor-car--2382359619448569487" depart="240.00" departLane="1" departPos="8.63" departSpeed="max" arrivalLane="0" arrivalPos="29.86">
        <route edges="gneE1 gneE1.12 gneE5 gneE7 gneE7.117 gneE7.141 gneE8 gneE9 gneE2 gneE1"/>
    </vehicle>
    <vehicle id="-flow-random-route-ad0adaed-a27d-4634-aa25-67517428e499--8345446476287485027-3-0.2" type="actor-car--2382359619448569487" depart="240.00" departLane="0" departPos="0.98" departSpeed="max" arrivalLane="0" arrivalPos="31.10">
        <route edges="gneE5 gneE7 gneE7.117 gneE7.141 gneE8 gneE9 gneE2 gneE1 gneE1.12 gneE5"/>
    </vehicle>
    <vehicle id="-flow-random-route-ae692830-42eb-466d-8f79-549befbf1128--8345446476287485027-6-0.2" type="actor-car--2382359619448569487" depart="240.00" departLane="0" departPos="142.73" departSpeed="max" arrivalLane="1" arrivalPos="25.42">
        <route edges="gneE8 gneE9 gneE2"/>
    </vehicle>
    <vehicle id="-flow-random-route-c786c7ad-3255-4a70-9e3c-6d8eaffa2dc6--8345446476287485027-26-0.2" type="actor-car--2382359619448569487" depart="240.00" departLane="0" departPos="127.37" departSpeed="max" arrivalLane="0" arrivalPos="60.15">
        <route edges="gneE16 gneE7.117 gneE10 gneE3 gneE1 gneE16 gneE7.117 gneE7.141 gneE8 gneE9"/>
    </vehicle>
    <vehicle id="-flow-random-route-cc9d85e7-1fa2-44da-b323-9fcfd4edcb22--8345446476287485027-14-0.2" type="actor-car--2382359619448569487" depart="240.00" departLane="1" departPos="32.90" departSpeed="max" arrivalLane="1" arrivalPos="94.52">
        <route edges="gneE1.12 gneE5 gneE7 gneE7.117 gneE10"/>
    </vehicle>