<?xml version="1.0" encoding="UTF-8"?>

<!-- generated on Tue Oct 27 09:06:25 2020 by Eclipse SUMO duarouter Version 1.6.0
<configuration xmlns:xsi="http://www.w3.org/2001/XMLSchema-instance" xsi:noNamespaceSchemaLocation="http://sumo.dlr.de/xsd/duarouterConfiguration.xsd">

    <input>
        <net-file value="dataset/intersection_4lane_sv/map.net.xml"/>
        <route-files value="/tmp/tmp51itw8ix/trips.trips.xml"/>
    </input>

    <output>
        <output-file value="dataset/intersection_4lane_sv/traffic/vertical.rou.xml"/>
        <alternatives-output value="dataset/intersection_4lane_sv/traffic/vertical.rou.alt.xml"/>
    </output>

    <processing>
        <unsorted-input value="true"/>
        <repair value="true"/>
    </processing>

    <report>
        <error-log value="/tmp/smarts/_duarouter_routing/traffic/vertical.log"/>
        <no-step-log value="true"/>
    </report>

    <random_number>
        <seed value="42"/>
    </random_number>

</configuration>
-->

<routes xmlns:xsi="http://www.w3.org/2001/XMLSchema-instance" xsi:noNamespaceSchemaLocation="http://sumo.dlr.de/xsd/routes_file.xsd">
    <vType id="actor-car--8773348643341119131" minGap="2.50" speedFactor="normc(1.00,0.20,0.20,2.00)" vClass="passenger" impatience="1.00" lcCooperative="0.25" lcImpatience="1" jmDriveAfterYellowTime="1.0" jmDriveAfterRedTime="1.5" accel="2.6" decel="4.5" sigma="0.5"/>
    <vehicle id="car-flow-route-edge-north-NS_0_random-edge-south-NS_0_random-3667375024230307621---4255466483158602093--0-0.0" type="actor-car--8773348643341119131" depart="0.00" departLane="0" departPos="random" departSpeed="max" arrivalLane="0" arrivalPos="random">
        <route edges="edge-north-NS edge-south-NS"/>
    </vehicle>
    <vType id="actor-car--1859188423492931198" minGap="2.50" speedFactor="normc(0.80,0.20,0.20,2.00)" vClass="passenger" impatience="0.50" lcCooperative="0.5" lcImpatience="0" jmDriveAfterYellowTime="1.0" accel="2.6" decel="4.5" sigma="0.5"/>
    <vehicle id="car-flow-route-edge-north-NS_0_random-edge-south-NS_0_random-3667375024230307621---4255466483158602093--0-1.0" type="actor-car--1859188423492931198" depart="0.00" departLane="0" departPos="random" departSpeed="max" arrivalLane="0" arrivalPos="random">
        <route edges="edge-north-NS edge-south-NS"/>
    </vehicle>
    <vehicle id="car-flow-route-edge-south-SN_0_random-edge-north-SN_0_random-307846732927025628---4255466483158602093--1-0.0" type="actor-car--8773348643341119131" depart="0.00" departLane="0" departPos="random" departSpeed="max" arrivalLane="0" arrivalPos="random">
        <route edges="edge-south-SN edge-north-SN"/>
    </vehicle>
    <vehicle id="car-flow-route-edge-south-SN_0_random-edge-north-SN_0_random-307846732927025628---4255466483158602093--1-1.0" type="actor-car--1859188423492931198" depart="0.00" departLane="0" departPos="random" departSpeed="max" arrivalLane="0" arrivalPos="random">
        <route edges="edge-south-SN edge-north-SN"/>
    </vehicle>
</routes>
