<?xml version="1.0" encoding="UTF-8"?>

<!-- generated on Fri Sep 18 03:15:30 2020 by Eclipse SUMO duarouter Version 1.6.0
<configuration xmlns:xsi="http://www.w3.org/2001/XMLSchema-instance" xsi:noNamespaceSchemaLocation="http://sumo.dlr.de/xsd/duarouterConfiguration.xsd">

    <input>
        <net-file value="dataset_public/intersection_loop/its_b/map.net.xml"/>
        <route-files value="/tmp/tmpyqh79n5u/trips.trips.xml"/>
    </input>

    <output>
        <output-file value="dataset_public/intersection_loop/its_b/traffic/30_patient_car.rou.xml"/>
        <alternatives-output value="dataset_public/intersection_loop/its_b/traffic/30_patient_car.rou.alt.xml"/>
    </output>

    <processing>
        <unsorted-input value="true"/>
        <repair value="true"/>
    </processing>

    <report>
        <error-log value="/tmp/smarts/_duarouter_routing/traffic/30_patient_car.log"/>
        <no-step-log value="true"/>
    </report>

    <random_number>
        <seed value="42"/>
    </random_number>

</configuration>
-->

<routes xmlns:xsi="http://www.w3.org/2001/XMLSchema-instance" xsi:noNamespaceSchemaLocation="http://sumo.dlr.de/xsd/routes_file.xsd">
    <vType id="actor-car-2751969275057285531" minGap="2.50" speedFactor="normc(0.50,0.20,0.20,2.00)" vClass="passenger" impatience="0.50" lcCooperative="0.5" lcImpatience="0" jmDriveAfterYellowTime="1.0" accel="2.6" decel="4.5" sigma="0.5"/>
    <vehicle id="-flow-random-route-0c50d6ca-e49d-4f35-bcea-8b01d395c721--6297320283199623072-15-0.0" type="actor-car-2751969275057285531" depart="0.00" departLane="0" departPos="63.68" departSpeed="max" arrivalLane="0" arrivalPos="19.34">
        <route edges="gneE14 gneE15 -gneE12 gneE11 gneE13"/>
    </vehicle>
    <vehicle id="-flow-random-route-0da003bc-b1c0-4f36-9e8c-de04c43152b4--6297320283199623072-29-0.0" type="actor-car-2751969275057285531" depart="0.00" departLane="0" departPos="10.47" departSpeed="max" arrivalLane="0" arrivalPos="77.88">
        <route edges="-gneE11 gneE12 gneE8 gneE9 gneE2 gneE11 gneE13 gneE14 gneE15 -gneE12"/>
    </vehicle>
    <vehicle id="-flow-random-route-11e8857f-b42e-42f5-b571-04dbce7f4c16--6297320283199623072-16-0.0" type="actor-car-2751969275057285531" depart="0.00" departLane="1" departPos="52.50" departSpeed="max" arrivalLane="0" arrivalPos="47.39">
        <route edges="gneE8 gneE9 gneE2 gneE12 gneE8 gneE9 gneE2 gneE11 gneE13 gneE14"/>
    </vehicle>
    <vehicle id="-flow-random-route-16155dc7-c8d4-43f0-8a47-a67e931944aa--6297320283199623072-12-0.0" type="actor-car-2751969275057285531" depart="0.00" departLane="1" departPos="40.85" departSpeed="max" arrivalLane="0" arrivalPos="30.50">
        <route edges="gneE9 gneE2 gneE11"/>
    </vehicle>
    <vehicle id="-flow-random-route-3eee32fe-24f8-46db-b3c7-f9355fdab8fb--6297320283199623072-17-0.0" type="actor-car-2751969275057285531" depart="0.00" departLane="0" departPos="31.59" departSpeed="max" arrivalLane="0" arrivalPos="42.51">
        <route edges="gneE15 -gneE12 gneE11 gneE13 gneE14"/>
    </vehicle>
    <vehicle id="-flow-random-route-4b1623e7-b495-4554-8d0e-14ce94b19175--6297320283199623072-6-0.0" type="actor-car-2751969275057285531" depart="0.00" departLane="0" departPos="68.23" departSpeed="max" arrivalLane="0" arrivalPos="4.65">
        <route edges="gneE12 gneE8 gneE9"/>
    </vehicle>
    <vehicle id="-flow-random-route-4cc69260-4d05-4b65-8c58-673554ab4e9b--6297320283199623072-21-0.0" type="actor-car-2751969275057285531" depart="0.00" departLane="0" departPos="25.52" departSpeed="max" arrivalLane="0" arrivalPos="32.84">
        <route edges="-gneE15 -gneE14 -gneE13 -gneE11 gneE12 gneE8"/>
    </vehicle>
    <vehicle id="-flow-random-route-559e9192-985a-4405-94e5-475b98b9e2d2--6297320283199623072-9-0.0" type="actor-car-2751969275057285531" depart="0.00" departLane="0" departPos="36.07" departSpeed="max" arrivalLane="0" arrivalPos="26.35">
        <route edges="gneE12 gneE8 gneE9 gneE2 gneE12"/>
    </vehicle>
    <vehicle id="-flow-random-route-5d782023-323a-4002-b171-0ae4fd8f9170--6297320283199623072-11-0.0" type="actor-car-2751969275057285531" depart="0.00" departLane="0" departPos="29.97" departSpeed="max" arrivalLane="0" arrivalPos="7.56">
        <route edges="gneE2 gneE11 gneE13 gneE14 gneE15"/>
    </vehicle>
    <vehicle id="-flow-random-route-684585f7-abe3-4263-be02-3125c9aefd41--6297320283199623072-26-0.0" type="actor-car-2751969275057285531" depart="0.00" departLane="0" departPos="2.57" departSpeed="max" arrivalLane="0" arrivalPos="93.48">
        <route edges="gneE14 gneE15 -gneE12 gneE11 gneE13"/>
    </vehicle>
    <vehicle id="-flow-random-route-6d309199-918b-413a-a693-5034e279d30b--6297320283199623072-18-0.0" type="actor-car-2751969275057285531" depart="0.00" departLane="0" departPos="45.47" departSpeed="max" arrivalLane="0" arrivalPos="62.53">
        <route edges="gneE12 -gneE15 -gneE14 -gneE13 -gneE11 gneE12"/>
    </vehicle>
    <vehicle id="-flow-random-route-7fd6aa39-33ca-4be3-b551-65ae59a7862f--6297320283199623072-2-0.0" type="actor-car-2751969275057285531" depart="0.00" departLane="0" departPos="6.12" departSpeed="max" arrivalLane="0" arrivalPos="54.03">
        <route edges="gneE15 -gneE12 gneE11 gneE13 gneE14 gneE15 gneE8 gneE9 gneE2 gneE12"/>
    </vehicle>
    <vehicle id="-flow-random-route-8043fa08-3e70-4ff0-b063-33108ee96782--6297320283199623072-19-0.0" type="actor-car-2751969275057285531" depart="0.00" departLane="0" departPos="22.44" departSpeed="max" arrivalLane="0" arrivalPos="114.48">
        <route edges="gneE12 gneE8 gneE9 gneE2 gneE12"/>
    </vehicle>
    <vehicle id="-flow-random-route-90245779-c97f-40af-9a8c-bc9669a8f7c6--6297320283199623072-24-0.0" type="actor-car-2751969275057285531" depart="0.00" departLane="0" departPos="48.96" departSpeed="max" arrivalLane="1" arrivalPos="39.54">
        <route edges="-gneE14 -gneE13 -gneE11 gneE12 -gneE15 -gneE14 -gneE13 -gneE11 gneE12 gneE8"/>
    </vehicle>
    <vehicle id="-flow-random-route-9cba62f9-e24e-416c-b9d2-cc614ec99ee2--6297320283199623072-7-0.0" type="actor-car-2751969275057285531" depart="0.00" departLane="0" departPos="29.29" departSpeed="max" arrivalLane="0" arrivalPos="49.45">
        <route edges="gneE13 gneE14 gneE15 -gneE12 gneE11"/>
    </vehicle>
    <vehicle id="-flow-random-route-9ec044c3-8cbf-4fda-9c4b-d67bb3d733b7--6297320283199623072-13-0.0" type="actor-car-2751969275057285531" depart="0.00" departLane="0" departPos="41.04" departSpeed="max" arrivalLane="1" arrivalPos="10.05">
        <route edges="-gneE13 -gneE11 gneE12 gneE8 gneE9 gneE2"/>
    </vehicle>
    <vehicle id="-flow-random-route-a0af92e4-53a3-4036-8b19-d049fb45f72b--6297320283199623072-3-0.0" type="actor-car-2751969275057285531" depart="0.00" departLane="0" departPos="88.28" departSpeed="max" arrivalLane="0" arrivalPos="85.30">
        <route edges="-gneE12 gneE11 gneE13"/>
    </vehicle>
    <vehicle id="-flow-random-route-a1dd23d8-14ea-44fc-beee-245c5a6177aa--6297320283199623072-23-0.0" type="actor-car-2751969275057285531" depart="0.00" departLane="0" departPos="56.02" departSpeed="max" arrivalLane="1" arrivalPos="4.81">
        <route edges="gneE8 gneE9 gneE2"/>
    </vehicle>
    <vehicle id="-flow-random-route-a7914109-cae5-4dcf-bd88-b60d43acf2d4--6297320283199623072-1-0.0" type="actor-car-2751969275057285531" depart="0.00" departLane="0" departPos="0.85" departSpeed="max" arrivalLane="0" arrivalPos="27.06">
        <route edges="gneE12 -gneE15 -gneE14 -gneE13 -gneE11 gneE12"/>
    </vehicle>
    <vehicle id="-flow-random-route-c9d59388-1a79-4eac-88e0-cd46fbc99ed7--6297320283199623072-25-0.0" type="actor-car-2751969275057285531" depart="0.00" departLane="0" departPos="97.81" departSpeed="max" arrivalLane="0" arrivalPos="75.07">
        <route edges="-gneE14 -gneE13 -gneE11 gneE12 gneE8 gneE9 gneE2 gneE11 gneE13 gneE14"/>
    </vehicle>
    <vehicle id="-flow-random-route-cacbc27f-2f18-4873-a113-f50c59846735--6297320283199623072-5-0.0" type="actor-car-2751969275057285531" depart="0.00" departLane="0" departPos="102.33" departSpeed="max" arrivalLane="0" arrivalPos="23.88">
        <route edges="gneE14 gneE15 -gneE12 gneE11 gneE13 gneE14 gneE15 gneE8 gneE9 gneE2"/>
    </vehicle>
    <vehicle id="-flow-random-route-cad2bdcb-f53d-4e88-a38f-13d8aacf1d79--6297320283199623072-14-0.0" type="actor-car-2751969275057285531" depart="0.00" departLane="0" departPos="77.55" departSpeed="max" arrivalLane="0" arrivalPos="39.51">
        <route edges="-gneE14 -gneE13 -gneE11 gneE12 -gneE15"/>
    </vehicle>
    <vehicle id="-flow-random-route-d059de69-628b-4340-ae7e-846d90f622ed--6297320283199623072-22-0.0" type="actor-car-2751969275057285531" depart="0.00" departLane="0" departPos="36.42" departSpeed="max" arrivalLane="0" arrivalPos="20.79">
        <route edges="gneE15 -gneE12 gneE11 gneE13 gneE14 gneE15 gneE8 gneE9 gneE2 gneE12"/>
    </vehicle>
    <vehicle id="-flow-random-route-d63bebf9-10b4-4f34-806f-781fbab42793--6297320283199623072-28-0.0" type="actor-car-2751969275057285531" depart="0.00" departLane="0" departPos="35.79" departSpeed="max" arrivalLane="0" arrivalPos="61.44">
        <route edges="-gneE15 -gneE14 -gneE13 -gneE11 gneE12"/>
    </vehicle>
    <vehicle id="-flow-random-route-da811091-3537-4469-b422-c74b60662e19--6297320283199623072-8-0.0" type="actor-car-2751969275057285531" depart="0.00" departLane="0" departPos="37.51" departSpeed="max" arrivalLane="0" arrivalPos="44.48">
        <route edges="gneE9 gneE2 gneE12 -gneE15 -gneE14 -gneE13 -gneE11 gneE12 gneE8 gneE9"/>
    </vehicle>
    <vehicle id="-flow-random-route-dcba3d30-039c-4d4a-9f9f-586dba2a7709--6297320283199623072-10-0.0" type="actor-car-2751969275057285531" depart="0.00" departLane="0" departPos="103.85" departSpeed="max" arrivalLane="0" arrivalPos="11.20">
        <route edges="-gneE12 gneE11 gneE13 gneE14 gneE15"/>
    </vehicle>
    <vehicle id="-flow-random-route-e0463404-3bf3-479b-8ed6-3b0c34d08296--6297320283199623072-27-0.0" type="actor-car-2751969275057285531" depart="0.00" departLane="0" departPos="22.06" departSpeed="max" arrivalLane="0" arrivalPos="73.89">
        <route edges="-gneE14 -gneE13 -gneE11 gneE12 gneE8 gneE9 gneE2 gneE11 gneE13 gneE14"/>
    </vehicle>
    <vehicle id="-flow-random-route-e61b3731-640c-46e1-9a65-c21e1e83d843--6297320283199623072-20-0.0" type="actor-car-2751969275057285531" depart="0.00" departLane="0" departPos="38.66" departSpeed="max" arrivalLane="1" arrivalPos="23.48">
        <route edges="gneE2 gneE12 gneE8"/>
    </vehicle>
    <vehicle id="-flow-random-route-f6cffd81-6158-499e-b07e-18add7655f6c--6297320283199623072-0-0.0" type="actor-car-2751969275057285531" depart="0.00" departLane="0" departPos="10.46" departSpeed="max" arrivalLane="0" arrivalPos="16.57">
        <route edges="gneE11 gneE13 gneE14 gneE15 -gneE12"/>
    </vehicle>
    <vehicle id="-flow-random-route-fd007b4f-149d-464b-bfb4-1382a12c3a7c--6297320283199623072-4-0.0" type="actor-car-2751969275057285531" depart="0.00" departLane="0" departPos="41.26" departSpeed="max" arrivalLane="0" arrivalPos="18.03">
        <route edges="gneE2 gneE12 -gneE15 -gneE14 -gneE13"/>
    </vehicle>
    <vehicle id="-flow-random-route-0c50d6ca-e49d-4f35-bcea-8b01d395c721--6297320283199623072-15-0.1" type="actor-car-2751969275057285531" depart="120.00" departLane="0" departPos="63.68" departSpeed="max" arrivalLane="0" arrivalPos="19.34">
        <route edges="gneE14 gneE15 -gneE12 gneE11 gneE13"/>
    </vehicle>
    <vehicle id="-flow-random-route-0da003bc-b1c0-4f36-9e8c-de04c43152b4--6297320283199623072-29-0.1" type="actor-car-2751969275057285531" depart="120.00" departLane="0" departPos="10.47" departSpeed="max" arrivalLane="0" arrivalPos="77.88">
        <route edges="-gneE11 gneE12 gneE8 gneE9 gneE2 gneE11 gneE13 gneE14 gneE15 -gneE12"/>
    </vehicle>
    <vehicle id="-flow-random-route-11e8857f-b42e-42f5-b571-04dbce7f4c16--6297320283199623072-16-0.1" type="actor-car-2751969275057285531" depart="120.00" departLane="1" departPos="52.50" departSpeed="max" arrivalLane="0" arrivalPos="47.39">
        <route edges="gneE8 gneE9 gneE2 gneE12 gneE8 gneE9 gneE2 gneE11 gneE13 gneE14"/>
    </vehicle>
    <vehicle id="-flow-random-route-16155dc7-c8d4-43f0-8a47-a67e931944aa--6297320283199623072-12-0.1" type="actor-car-2751969275057285531" depart="120.00" departLane="1" departPos="40.85" departSpeed="max" arrivalLane="0" arrivalPos="30.50">
        <route edges="gneE9 gneE2 gneE11"/>
    </vehicle>
    <vehicle id="-flow-random-route-3eee32fe-24f8-46db-b3c7-f9355fdab8fb--6297320283199623072-17-0.1" type="actor-car-2751969275057285531" depart="120.00" departLane="0" departPos="31.59" departSpeed="max" arrivalLane="0" arrivalPos="42.51">
        <route edges="gneE15 -gneE12 gneE11 gneE13 gneE14"/>
    </vehicle>
    <vehicle id="-flow-random-route-4b1623e7-b495-4554-8d0e-14ce94b19175--6297320283199623072-6-0.1" type="actor-car-2751969275057285531" depart="120.00" departLane="0" departPos="68.23" departSpeed="max" arrivalLane="0" arrivalPos="4.65">
        <route edges="gneE12 gneE8 gneE9"/>
    </vehicle>
    <vehicle id="-flow-random-route-4cc69260-4d05-4b65-8c58-673554ab4e9b--6297320283199623072-21-0.1" type="actor-car-2751969275057285531" depart="120.00" departLane="0" departPos="25.52" departSpeed="max" arrivalLane="0" arrivalPos="32.84">
        <route edges="-gneE15 -gneE14 -gneE13 -gneE11 gneE12 gneE8"/>
    </vehicle>
    <vehicle id="-flow-random-route-559e9192-985a-4405-94e5-475b98b9e2d2--6297320283199623072-9-0.1" type="actor-car-2751969275057285531" depart="120.00" departLane="0" departPos="36.07" departSpeed="max" arrivalLane="0" arrivalPos="26.35">
        <route edges="gneE12 gneE8 gneE9 gneE2 gneE12"/>
    </vehicle>
    <vehicle id="-flow-random-route-5d782023-323a-4002-b171-0ae4fd8f9170--6297320283199623072-11-0.1" type="actor-car-2751969275057285531" depart="120.00" departLane="0" departPos="29.97" departSpeed="max" arrivalLane="0" arrivalPos="7.56">
        <route edges="gneE2 gneE11 gneE13 gneE14 gneE15"/>
    </vehicle>
    <vehicle id="-flow-random-route-684585f7-abe3-4263-be02-3125c9aefd41--6297320283199623072-26-0.1" type="actor-car-2751969275057285531" depart="120.00" departLane="0" departPos="2.57" departSpeed="max" arrivalLane="0" arrivalPos="93.48">
        <route edges="gneE14 gneE15 -gneE12 gneE11 gneE13"/>
    </vehicle>
    <vehicle id="-flow-random-route-6d309199-918b-413a-a693-5034e279d30b--6297320283199623072-18-0.1" type="actor-car-2751969275057285531" depart="120.00" departLane="0" departPos="45.47" departSpeed="max" arrivalLane="0" arrivalPos="62.53">
        <route edges="gneE12 -gneE15 -gneE14 -gneE13 -gneE11 gneE12"/>
    </vehicle>
    <vehicle id="-flow-random-route-7fd6aa39-33ca-4be3-b551-65ae59a7862f--6297320283199623072-2-0.1" type="actor-car-2751969275057285531" depart="120.00" departLane="0" departPos="6.12" departSpeed="max" arrivalLane="0" arrivalPos="54.03">
        <route edges="gneE15 -gneE12 gneE11 gneE13 gneE14 gneE15 gneE8 gneE9 gneE2 gneE12"/>
    </vehicle>
    <vehicle id="-flow-random-route-8043fa08-3e70-4ff0-b063-33108ee96782--6297320283199623072-19-0.1" type="actor-car-2751969275057285531" depart="120.00" departLane="0" departPos="22.44" departSpeed="max" arrivalLane="0" arrivalPos="114.48">
        <route edges="gneE12 gneE8 gneE9 gneE2 gneE12"/>
    </vehicle>
    <vehicle id="-flow-random-route-90245779-c97f-40af-9a8c-bc9669a8f7c6--6297320283199623072-24-0.1" type="actor-car-2751969275057285531" depart="120.00" departLane="0" departPos="48.96" departSpeed="max" arrivalLane="1" arrivalPos="39.54">
        <route edges="-gneE14 -gneE13 -gneE11 gneE12 -gneE15 -gneE14 -gneE13 -gneE11 gneE12 gneE8"/>
    </vehicle>
    <vehicle id="-flow-random-route-9cba62f9-e24e-416c-b9d2-cc614ec99ee2--6297320283199623072-7-0.1" type="actor-car-2751969275057285531" depart="120.00" departLane="0" departPos="29.29" departSpeed="max" arrivalLane="0" arrivalPos="49.45">
        <route edges="gneE13 gneE14 gneE15 -gneE12 gneE11"/>
    </vehicle>
    <vehicle id="-flow-random-route-9ec044c3-8cbf-4fda-9c4b-d67bb3d733b7--6297320283199623072-13-0.1" type="actor-car-2751969275057285531" depart="120.00" departLane="0" departPos="41.04" departSpeed="max" arrivalLane="1" arrivalPos="10.05">
        <route edges="-gneE13 -gneE11 gneE12 gneE8 gneE9 gneE2"/>
    </vehicle>
    <vehicle id="-flow-random-route-a0af92e4-53a3-4036-8b19-d049fb45f72b--6297320283199623072-3-0.1" type="actor-car-2751969275057285531" depart="120.00" departLane="0" departPos="88.28" departSpeed="max" arrivalLane="0" arrivalPos="85.30">
        <route edges="-gneE12 gneE11 gneE13"/>
    </vehicle>
    <vehicle id="-flow-random-route-a1dd23d8-14ea-44fc-beee-245c5a6177aa--6297320283199623072-23-0.1" type="actor-car-2751969275057285531" depart="120.00" departLane="0" departPos="56.02" departSpeed="max" arrivalLane="1" arrivalPos="4.81">
        <route edges="gneE8 gneE9 gneE2"/>
    </vehicle>
    <vehicle id="-flow-random-route-a7914109-cae5-4dcf-bd88-b60d43acf2d4--6297320283199623072-1-0.1" type="actor-car-2751969275057285531" depart="120.00" departLane="0" departPos="0.85" departSpeed="max" arrivalLane="0" arrivalPos="27.06">
        <route edges="gneE12 -gneE15 -gneE14 -gneE13 -gneE11 gneE12"/>
    </vehicle>
    <vehicle id="-flow-random-route-c9d59388-1a79-4eac-88e0-cd46fbc99ed7--6297320283199623072-25-0.1" type="actor-car-2751969275057285531" depart="120.00" departLane="0" departPos="97.81" departSpeed="max" arrivalLane="0" arrivalPos="75.07">
        <route edges="-gneE14 -gneE13 -gneE11 gneE12 gneE8 gneE9 gneE2 gneE11 gneE13 gneE14"/>
    </vehicle>
    <vehicle id="-flow-random-route-cacbc27f-2f18-4873-a113-f50c59846735--6297320283199623072-5-0.1" type="actor-car-2751969275057285531" depart="120.00" departLane="0" departPos="102.33" departSpeed="max" arrivalLane="0" arrivalPos="23.88">
        <route edges="gneE14 gneE15 -gneE12 gneE11 gneE13 gneE14 gneE15 gneE8 gneE9 gneE2"/>
    </vehicle>
    <vehicle id="-flow-random-route-cad2bdcb-f53d-4e88-a38f-13d8aacf1d79--6297320283199623072-14-0.1" type="actor-car-2751969275057285531" depart="120.00" departLane="0" departPos="77.55" departSpeed="max" arrivalLane="0" arrivalPos="39.51">
        <route edges="-gneE14 -gneE13 -gneE11 gneE12 -gneE15"/>
    </vehicle>
    <vehicle id="-flow-random-route-d059de69-628b-4340-ae7e-846d90f622ed--6297320283199623072-22-0.1" type="actor-car-2751969275057285531" depart="120.00" departLane="0" departPos="36.42" departSpeed="max" arrivalLane="0" arrivalPos="20.79">
        <route edges="gneE15 -gneE12 gneE11 gneE13 gneE14 gneE15 gneE8 gneE9 gneE2 gneE12"/>
    </vehicle>
    <vehicle id="-flow-random-route-d63bebf9-10b4-4f34-806f-781fbab42793--6297320283199623072-28-0.1" type="actor-car-2751969275057285531" depart="120.00" departLane="0" departPos="35.79" departSpeed="max" arrivalLane="0" arrivalPos="61.44">
        <route edges="-gneE15 -gneE14 -gneE13 -gneE11 gneE12"/>
    </vehicle>
    <vehicle id="-flow-random-route-da811091-3537-4469-b422-c74b60662e19--6297320283199623072-8-0.1" type="actor-car-2751969275057285531" depart="120.00" departLane="0" departPos="37.51" departSpeed="max" arrivalLane="0" arrivalPos="44.48">
        <route edges="gneE9 gneE2 gneE12 -gneE15 -gneE14 -gneE13 -gneE11 gneE12 gneE8 gneE9"/>
    </vehicle>
    <vehicle id="-flow-random-route-dcba3d30-039c-4d4a-9f9f-586dba2a7709--6297320283199623072-10-0.1" type="actor-car-2751969275057285531" depart="120.00" departLane="0" departPos="103.85" departSpeed="max" arrivalLane="0" arrivalPos="11.20">
        <route edges="-gneE12 gneE11 gneE13 gneE14 gneE15"/>
    </vehicle>
    <vehicle id="-flow-random-route-e0463404-3bf3-479b-8ed6-3b0c34d08296--6297320283199623072-27-0.1" type="actor-car-2751969275057285531" depart="120.00" departLane="0" departPos="22.06" departSpeed="max" arrivalLane="0" arrivalPos="73.89">
        <route edges="-gneE14 -gneE13 -gneE11 gneE12 gneE8 gneE9 gneE2 gneE11 gneE13 gneE14"/>
    </vehicle>
    <vehicle id="-flow-random-route-e61b3731-640c-46e1-9a65-c21e1e83d843--6297320283199623072-20-0.1" type="actor-car-2751969275057285531" depart="120.00" departLane="0" departPos="38.66" departSpeed="max" arrivalLane="1" arrivalPos="23.48">
        <route edges="gneE2 gneE12 gneE8"/>
    </vehicle>
    <vehicle id="-flow-random-route-f6cffd81-6158-499e-b07e-18add7655f6c--6297320283199623072-0-0.1" type="actor-car-2751969275057285531" depart="120.00" departLane="0" departPos="10.46" departSpeed="max" arrivalLane="0" arrivalPos="16.57">
        <route edges="gneE11 gneE13 gneE14 gneE15 -gneE12"/>
    </vehicle>
    <vehicle id="-flow-random-route-fd007b4f-149d-464b-bfb4-1382a12c3a7c--6297320283199623072-4-0.1" type="actor-car-2751969275057285531" depart="120.00" departLane="0" departPos="41.26" departSpeed="max" arrivalLane="0" arrivalPos="18.03">
        <route edges="gneE2 gneE12 -gneE15 -gneE14 -gneE13"/>
    </vehicle>
    <vehicle id="-flow-random-route-0c50d6ca-e49d-4f35-bcea-8b01d395c721--6297320283199623072-15-0.2" type="actor-car-2751969275057285531" depart="240.00" departLane="0" departPos="63.68" departSpeed="max" arrivalLane="0" arrivalPos="19.34">
        <route edges="gneE14 gneE15 -gneE12 gneE11 gneE13"/>
    </vehicle>
    <vehicle id="-flow-random-route-0da003bc-b1c0-4f36-9e8c-de04c43152b4--6297320283199623072-29-0.2" type="actor-car-2751969275057285531" depart="240.00" departLane="0" departPos="10.47" departSpeed="max" arrivalLane="0" arrivalPos="77.88">
        <route edges="-gneE11 gneE12 gneE8 gneE9 gneE2 gneE11 gneE13 gneE14 gneE15 -gneE12"/>
    </vehicle>
    <vehicle id="-flow-random-route-11e8857f-b42e-42f5-b571-04dbce7f4c16--6297320283199623072-16-0.2" type="actor-car-2751969275057285531" depart="240.00" departLane="1" departPos="52.50" departSpeed="max" arrivalLane="0" arrivalPos="47.39">
        <route edges="gneE8 gneE9 gneE2 gneE12 gneE8 gneE9 gneE2 gneE11 gneE13 gneE14"/>
    </vehicle>
    <vehicle id="-flow-random-route-16155dc7-c8d4-43f0-8a47-a67e931944aa--6297320283199623072-12-0.2" type="actor-car-2751969275057285531" depart="240.00" departLane="1" departPos="40.85" departSpeed="max" arrivalLane="0" arrivalPos="30.50">
        <route edges="gneE9 gneE2 gneE11"/>
    </vehicle>
    <vehicle id="-flow-random-route-3eee32fe-24f8-46db-b3c7-f9355fdab8fb--6297320283199623072-17-0.2" type="actor-car-2751969275057285531" depart="240.00" departLane="0" departPos="31.59" departSpeed="max" arrivalLane="0" arrivalPos="42.51">
        <route edges="gneE15 -gneE12 gneE11 gneE13 gneE14"/>
    </vehicle>
    <vehicle id="-flow-random-route-4b1623e7-b495-4554-8d0e-14ce94b19175--6297320283199623072-6-0.2" type="actor-car-2751969275057285531" depart="240.00" departLane="0" departPos="68.23" departSpeed="max" arrivalLane="0" arrivalPos="4.65">
        <route edges="gneE12 gneE8 gneE9"/>
    </vehicle>
    <vehicle id="-flow-random-route-4cc69260-4d05-4b65-8c58-673554ab4e9b--6297320283199623072-21-0.2" type="actor-car-2751969275057285531" depart="240.00" departLane="0" departPos="25.52" departSpeed="max" arrivalLane="0" arrivalPos="32.84">
        <route edges="-gneE15 -gneE14 -gneE13 -gneE11 gneE12 gneE8"/>
    </vehicle>
    <vehicle id="-flow-random-route-559e9192-985a-4405-94e5-475b98b9e2d2--6297320283199623072-9-0.2" type="actor-car-2751969275057285531" depart="240.00" departLane="0" departPos="36.07" departSpeed="max" arrivalLane="0" arrivalPos="26.35">
        <route edges="gneE12 gneE8 gneE9 gneE2 gneE12"/>
    </vehicle>
    <vehicle id="-flow-random-route-5d782023-323a-4002-b171-0ae4fd8f9170--6297320283199623072-11-0.2" type="actor-car-2751969275057285531" depart="240.00" departLane="0" departPos="29.97" departSpeed="max" arrivalLane="0" arrivalPos="7.56">
        <route edges="gneE2 gneE11 gneE13 gneE14 gneE15"/>
    </vehicle>
    <vehicle id="-flow-random-route-684585f7-abe3-4263-be02-3125c9aefd41--6297320283199623072-26-0.2" type="actor-car-2751969275057285531" depart="240.00" departLane="0" departPos="2.57" departSpeed="max" arrivalLane="0" arrivalPos="93.48">
        <route edges="gneE14 gneE15 -gneE12 gneE11 gneE13"/>
    </vehicle>
    <vehicle id="-flow-random-route-6d309199-918b-413a-a693-5034e279d30b--6297320283199623072-18-0.2" type="actor-car-2751969275057285531" depart="240.00" departLane="0" departPos="45.47" departSpeed="max" arrivalLane="0" arrivalPos="62.53">
        <route edges="gneE12 -gneE15 -gneE14 -gneE13 -gneE11 gneE12"/>
    </vehicle>
    <vehicle id="-flow-random-route-7fd6aa39-33ca-4be3-b551-65ae59a7862f--6297320283199623072-2-0.2" type="actor-car-2751969275057285531" depart="240.00" departLane="0" departPos="6.12" departSpeed="max" arrivalLane="0" arrivalPos="54.03">
        <route edges="gneE15 -gneE12 gneE11 gneE13 gneE14 gneE15 gneE8 gneE9 gneE2 gneE12"/>
    </vehicle>
    <vehicle id="-flow-random-route-8043fa08-3e70-4ff0-b063-33108ee96782--6297320283199623072-19-0.2" type="actor-car-2751969275057285531" depart="240.00" departLane="0" departPos="22.44" departSpeed="max" arrivalLane="0" arrivalPos="114.48">
        <route edges="gneE12 gneE8 gneE9 gneE2 gneE12"/>
    </vehicle>
    <vehicle id="-flow-random-route-90245779-c97f-40af-9a8c-bc9669a8f7c6--6297320283199623072-24-0.2" type="actor-car-2751969275057285531" depart="240.00" departLane="0" departPos="48.96" departSpeed="max" arrivalLane="1" arrivalPos="39.54">
        <route edges="-gneE14 -gneE13 -gneE11 gneE12 -gneE15 -gneE14 -gneE13 -gneE11 gneE12 gneE8"/>
    </vehicle>
    <vehicle id="-flow-random-route-9cba62f9-e24e-416c-b9d2-cc614ec99ee2--6297320283199623072-7-0.2" type="actor-car-2751969275057285531" depart="240.00" departLane="0" departPos="29.29" departSpeed="max" arrivalLane="0" arrivalPos="49.45">
        <route edges="gneE13 gneE14 gneE15 -gneE12 gneE11"/>
    </vehicle>
    <vehicle id="-flow-random-route-9ec044c3-8cbf-4fda-9c4b-d67bb3d733b7--6297320283199623072-13-0.2" type="actor-car-2751969275057285531" depart="240.00" departLane="0" departPos="41.04" departSpeed="max" arrivalLane="1" arrivalPos="10.05">
        <route edges="-gneE13 -gneE11 gneE12 gneE8 gneE9 gneE2"/>
    </vehicle>
    <vehicle id="-flow-random-route-a0af92e4-53a3-4036-8b19-d049fb45f72b--6297320283199623072-3-0.2" type="actor-car-2751969275057285531" depart="240.00" departLane="0" departPos="88.28" departSpeed="max" arrivalLane="0" arrivalPos="85.30">
        <route edges="-gneE12 gneE11 gneE13"/>
    </vehicle>
    <vehicle id="-flow-random-route-a1dd23d8-14ea-44fc-beee-245c5a6177aa--6297320283199623072-23-0.2" type="actor-car-2751969275057285531" depart="240.00" departLane="0" departPos="56.02" departSpeed="max" arrivalLane="1" arrivalPos="4.81">
        <route edges="gneE8 gneE9 gneE2"/>
    </vehicle>
    <vehicle id="-flow-random-route-a7914109-cae5-4dcf-bd88-b60d43acf2d4--6297320283199623072-1-0.2" type="actor-car-2751969275057285531" depart="240.00" departLane="0" departPos="0.85" departSpeed="max" arrivalLane="0" arrivalPos="27.06">
        <route edges="gneE12 -gneE15 -gneE14 -gneE13 -gneE11 gneE12"/>
    </vehicle>
    <vehicle id="-flow-random-route-c9d59388-1a79-4eac-88e0-cd46fbc99ed7--6297320283199623072-25-0.2" type="actor-car-2751969275057285531" depart="240.00" departLane="0" departPos="97.81" departSpeed="max" arrivalLane="0" arrivalPos="75.07">
        <route edges="-gneE14 -gneE13 -gneE11 gneE12 gneE8 gneE9 gneE2 gneE11 gneE13 gneE14"/>
    </vehicle>
    <vehicle id="-flow-random-route-cacbc27f-2f18-4873-a113-f50c59846735--6297320283199623072-5-0.2" type="actor-car-2751969275057285531" depart="240.00" departLane="0" departPos="102.33" departSpeed="max" arrivalLane="0" arrivalPos="23.88">
        <route edges="gneE14 gneE15 -gneE12 gneE11 gneE13 gneE14 gneE15 gneE8 gneE9 gneE2"/>
    </vehicle>
    <vehicle id="-flow-random-route-cad2bdcb-f53d-4e88-a38f-13d8aacf1d79--6297320283199623072-14-0.2" type="actor-car-2751969275057285531" depart="240.00" departLane="0" departPos="77.55" departSpeed="max" arrivalLane="0" arrivalPos="39.51">
        <route edges="-gneE14 -gneE13 -gneE11 gneE12 -gneE15"/>
    </vehicle>
    <vehicle id="-flow-random-route-d059de69-628b-4340-ae7e-846d90f622ed--6297320283199623072-22-0.2" type="actor-car-2751969275057285531" depart="240.00" departLane="0" departPos="36.42" departSpeed="max" arrivalLane="0" arrivalPos="20.79">
        <route edges="gneE15 -gneE12 gneE11 gneE13 gneE14 gneE15 gneE8 gneE9 gneE2 gneE12"/>
    </vehicle>
    <vehicle id="-flow-random-route-d63bebf9-10b4-4f34-806f-781fbab42793--6297320283199623072-28-0.2" type="actor-car-2751969275057285531" depart="240.00" departLane="0" departPos="35.79" departSpeed="max" arrivalLane="0" arrivalPos="61.44">
        <route edges="-gneE15 -gneE14 -gneE13 -gneE11 gneE12"/>
    </vehicle>
    <vehicle id="-flow-random-route-da811091-3537-4469-b422-c74b60662e19--6297320283199623072-8-0.2" type="actor-car-2751969275057285531" depart="240.00" departLane="0" departPos="37.51" departSpeed="max" arrivalLane="0" arrivalPos="44.48">
        <route edges="gneE9 gneE2 gneE12 -gneE15 -gneE14 -gneE13 -gneE11 gneE12 gneE8 gneE9"/>
    </vehicle>
    <vehicle id="-flow-random-route-dcba3d30-039c-4d4a-9f9f-586dba2a7709--6297320283199623072-10-0.2" type="actor-car-2751969275057285531" depart="240.00" departLane="0" departPos="103.85" departSpeed="max" arrivalLane="0" arrivalPos="11.20">
        <route edges="-gneE12 gneE11 gneE13 gneE14 gneE15"/>
    </vehicle>
    <vehicle id="-flow-random-route-e0463404-3bf3-479b-8ed6-3b0c34d08296--6297320283199623072-27-0.2" type="actor-car-2751969275057285531" depart="240.00" departLane="0" departPos="22.06" departSpeed="max" arrivalLane="0" arrivalPos="73.89">
        <route edges="-gneE14 -gneE13 -gneE11 gneE12 gneE8 gneE9 gneE2 gneE11 gneE13 gneE14"/>
    </vehicle>
    <vehicle id="-flow-random-route-e61b3731-640c-46e1-9a65-c21e1e83d843--6297320283199623072-20-0.2" type="actor-car-2751969275057285531" depart="240.00" departLane="0" departPos="38.66" departSpeed="max" arrivalLane="1" arrivalPos="23.48">