<?xml version="1.0" encoding="UTF-8"?>

<!-- generated on Fri Aug 21 07:53:08 2020 by Eclipse SUMO duarouter Version 1.6.0
<configuration xmlns:xsi="http://www.w3.org/2001/XMLSchema-instance" xsi:noNamespaceSchemaLocation="http://sumo.dlr.de/xsd/duarouterConfiguration.xsd">

    <input>
        <net-file value="dataset_public/simple_loop/simpleloop_a/map.net.xml"/>
        <route-files value="/tmp/tmppxj4i231/trips.trips.xml"/>
    </input>

    <output>
        <output-file value="dataset_public/simple_loop/simpleloop_a/traffic/30_patient_car.rou.xml"/>
        <alternatives-output value="dataset_public/simple_loop/simpleloop_a/traffic/30_patient_car.rou.alt.xml"/>
    </output>

    <processing>
        <unsorted-input value="true"/>
        <repair value="true"/>
    </processing>

    <report>
        <error-log value="/tmp/smarts/_duarouter_routing/traffic/30_patient_car.log"/>
        <no-step-log value="true"/>
    </report>

    <random_number>
        <seed value="42"/>
    </random_number>

</configuration>
-->

<routes xmlns:xsi="http://www.w3.org/2001/XMLSchema-instance" xsi:noNamespaceSchemaLocation="http://sumo.dlr.de/xsd/routes_file.xsd">
    <vType id="actor-car--8227924996637239053" minGap="2.50" speedFactor="normc(0.50,0.20,0.20,2.00)" vClass="passenger" impatience="0.50" lcCooperative="0.5" lcImpatience="0" jmDriveAfterYellowTime="1.0" accel="2.6" decel="4.5" sigma="0.5"/>
    <vehicle id="-flow-random-route-01ac3d49-1a30-4d82-b435-9b891c0dbacd-149580754560629390-20-0.0" type="actor-car--8227924996637239053" depart="0.00" departLane="2" departPos="452.58" departSpeed="max" arrivalLane="2" arrivalPos="58.73">
        <route edges="edge1 edge0"/>
    </vehicle>
    <vehicle id="-flow-random-route-0b316fb0-8f2f-451c-bef8-cc9e59570c45-149580754560629390-28-0.0" type="actor-car--8227924996637239053" depart="0.00" departLane="1" departPos="59.61" departSpeed="max" arrivalLane="2" arrivalPos="62.24">
        <route edges="edge0 edge1"/>
    </vehicle>
    <vehicle id="-flow-random-route-2111a1f5-e7a1-4f5c-8441-9722d67e2fc3-149580754560629390-29-0.0" type="actor-car--8227924996637239053" depart="0.00" departLane="1" departPos="34.30" departSpeed="max" arrivalLane="0" arrivalPos="103.16">
        <route edges="edge0 edge1"/>
    </vehicle>
    <vehicle id="-flow-random-route-26d3119e-9cab-45c6-ad6c-1fcb5c653776-149580754560629390-19-0.0" type="actor-car--8227924996637239053" depart="0.00" departLane="1" departPos="15.27" departSpeed="max" arrivalLane="1" arrivalPos="18.71">
        <route edges="edge0 edge1"/>
    </vehicle>
    <vehicle id="-flow-random-route-2ba228ed-9388-4bf1-8341-79f7ea628291-149580754560629390-14-0.0" type="actor-car--8227924996637239053" depart="0.00" departLane="0" departPos="73.93" departSpeed="max" arrivalLane="0" arrivalPos="80.50">
        <route edges="edge0 edge1"/>
    </vehicle>
    <vehicle id="-flow-random-route-37afc873-d55e-48b7-a011-998f129972e8-149580754560629390-4-0.0" type="actor-car--8227924996637239053" depart="0.00" departLane="2" departPos="65.15" departSpeed="max" arrivalLane="2" arrivalPos="446.25">
        <route edges="edge0 edge1"/>
    </vehicle>
    <vehicle id="-flow-random-route-4464b04a-3815-4203-8013-b2e85b62a5c0-149580754560629390-0-0.0" type="actor-car--8227924996637239053" depart="0.00" departLane="0" departPos="62.98" departSpeed="max" arrivalLane="1" arrivalPos="382.56">
        <route edges="edge0 edge1"/>
    </vehicle>
    <vehicle id="-flow-random-route-45f3bfbc-0177-40e2-ade0-1495f21b7e5e-149580754560629390-26-0.0" type="actor-car--8227924996637239053" depart="0.00" departLane="2" departPos="195.29" departSpeed="max" arrivalLane="0" arrivalPos="85.27">
        <route edges="edge1 edge0"/>
    </vehicle>
    <vehicle id="-flow-random-route-6370dc43-3862-4dd7-9b65-048e3136938e-149580754560629390-9-0.0" type="actor-car--8227924996637239053" depart="0.00" departLane="0" departPos="323.34" departSpeed="max" arrivalLane="1" arrivalPos="84.24">
        <route edges="edge1 edge0"/>
    </vehicle>
    <vehicle id="-flow-random-route-7c0272a9-0d1d-48c9-bb3c-bddd3a618111-149580754560629390-17-0.0" type="actor-car--8227924996637239053" depart="0.00" departLane="2" departPos="64.58" departSpeed="max" arrivalLane="2" arrivalPos="98.36">
        <route edges="edge0 edge1"/>
    </vehicle>
    <vehicle id="-flow-random-route-831073c4-0aeb-4838-8796-c65307c4205f-149580754560629390-16-0.0" type="actor-car--8227924996637239053" depart="0.00" departLane="2" departPos="270.85" departSpeed="max" arrivalLane="2" arrivalPos="18.83">
        <route edges="edge1 edge0"/>
    </vehicle>
    <vehicle id="-flow-random-route-848262d0-1905-43cb-a1ac-bb8b85fe4216-149580754560629390-15-0.0" type="actor-car--8227924996637239053" depart="0.00" departLane="1" departPos="18.71" departSpeed="max" arrivalLane="2" arrivalPos="253.27">
        <route edges="edge0 edge1"/>
    </vehicle>
    <vehicle id="-flow-random-route-8c84929b-e519-4c64-b04a-078e733fb064-149580754560629390-23-0.0" type="actor-car--8227924996637239053" depart="0.00" departLane="1" departPos="24.37" departSpeed="max" arrivalLane="1" arrivalPos="407.68">
        <route edges="edge0 edge1"/>
    </vehicle>
    <vehicle id="-flow-random-route-8d5e11eb-bb9c-41a8-b9b3-5e13d51a2ae9-149580754560629390-12-0.0" type="actor-car--8227924996637239053" depart="0.00" departLane="0" departPos="49.52" departSpeed="max" arrivalLane="2" arrivalPos="29.81">
        <route edges="edge0 edge1"/>
    </vehicle>
    <vehicle id="-flow-random-route-921b1b2f-6281-4698-8d81-4e909d29c40c-149580754560629390-22-0.0" type="actor-car--8227924996637239053" depart="0.00" departLane="0" departPos="22.60" departSpeed="max" arrivalLane="1" arrivalPos="52.26">
        <route edges="edge1 edge0"/>
    </vehicle>
    <vehicle id="-flow-random-route-9346b748-2b39-4a45-8531-d9df2aa219d4-149580754560629390-7-0.0" type="actor-car--8227924996637239053" depart="0.00" departLane="2" departPos="479.09" departSpeed="max" arrivalLane="0" arrivalPos="63.38">
        <route edges="edge1 edge0"/>
    </vehicle>
    <vehicle id="-flow-random-route-9910dc97-1bd2-4fe6-8f1c-2750f575fc04-149580754560629390-10-0.0" type="actor-car--8227924996637239053" depart="0.00" departLane="2" departPos="4.63" departSpeed="max" arrivalLane="2" arrivalPos="481.23">
        <route edges="edge0 edge1"/>
    </vehicle>
    <vehicle id="-flow-random-route-99a162b2-99d3-4df5-b29b-5a52cb6b275d-149580754560629390-6-0.0" type="actor-car--8227924996637239053" depart="0.00" departLane="1" departPos="49.98" departSpeed="max" arrivalLane="1" arrivalPos="8.27">
        <route edges="edge1 edge0"/>
    </vehicle>
    <vehicle id="-flow-random-route-b01838be-9db6-464c-95da-f31a933398ce-149580754560629390-2-0.0" type="actor-car--8227924996637239053" depart="0.00" departLane="2" departPos="85.17" departSpeed="max" arrivalLane="2" arrivalPos="122.93">
        <route edges="edge0 edge1"/>
    </vehicle>
    <vehicle id="-flow-random-route-bc6267c4-4fbe-42ab-9b08-c5ab76cb57ea-149580754560629390-8-0.0" type="actor-car--8227924996637239053" depart="0.00" departLane="1" departPos="216.02" departSpeed="max" arrivalLane="2" arrivalPos="18.27">
        <route edges="edge1 edge0"/>
    </vehicle>
    <vehicle id="-flow-random-route-be7c6746-74b9-49de-a65c-6480ceb8c93f-149580754560629390-24-0.0" type="actor-car--8227924996637239053" depart="0.00" departLane="1" departPos="117.08" departSpeed="max" arrivalLane="0" arrivalPos="75.07">
        <route edges="edge1 edge0"/>
    </vehicle>
    <vehicle id="-flow-random-route-bf3c2bd0-775a-4849-b026-a4f9f6c72196-149580754560629390-25-0.0" type="actor-car--8227924996637239053" depart="0.00" departLane="1" departPos="58.62" departSpeed="max" arrivalLane="2" arrivalPos="21.05">
        <route edges="edge1 edge0"/>
    </vehicle>
    <vehicle id="-flow-random-route-bfde41e8-a8f6-4696-a6d6-5ee5eeda2afc-149580754560629390-27-0.0" type="actor-car--8227924996637239053" depart="0.00" departLane="2" departPos="55.19" departSpeed="max" arrivalLane="1" arrivalPos="154.60">
        <route edges="edge0 edge1"/>
    </vehicle>
    <vehicle id="-flow-random-route-c513e7c0-0b7d-4b74-9ab5-6a3232b95438-149580754560629390-5-0.0" type="actor-car--8227924996637239053" depart="0.00" departLane="1" departPos="149.23" departSpeed="max" arrivalLane="0" arrivalPos="19.06">
        <route edges="edge1 edge0"/>
    </vehicle>
    <vehicle id="-flow-random-route-d0ddcfae-d18e-42ff-84b1-e04337ba1a88-149580754560629390-13-0.0" type="actor-car--8227924996637239053" depart="0.00" departLane="2" departPos="11.31" departSpeed="max" arrivalLane="2" arrivalPos="281.75">
        <route edges="edge0 edge1"/>
    </vehicle>
    <vehicle id="-flow-random-route-d4f40180-ed5d-455e-8e07-2612a840334a-149580754560629390-1-0.0" type="actor-car--8227924996637239053" depart="0.00" departLane="2" departPos="80.08" departSpeed="max" arrivalLane="2" arrivalPos="34.91">
        <route edges="edge0 edge1"/>
    </vehicle>
    <vehicle id="-flow-random-route-d6f1cc25-e9c3-4569-a5de-908ae4828355-149580754560629390-21-0.0" type="actor-car--8227924996637239053" depart="0.00" departLane="2" departPos="102.99" departSpeed="max" arrivalLane="1" arrivalPos="17.41">
        <route edges="edge1 edge0"/>
    </vehicle>
    <vehicle id="-flow-random-route-eed44b39-39d7-4e13-a6f0-929887b089e6-149580754560629390-18-0.0" type="actor-car--8227924996637239053" depart="0.00" departLane="0" departPos="247.10" departSpeed="max" arrivalLane="0" arrivalPos="47.99">
        <route edges="edge1 edge0"/>
    </vehicle>
    <vehicle id="-flow-random-route-f307c786-41bb-4b12-ae38-448ab5882979-149580754560629390-11-0.0" type="actor-car--8227924996637239053" depart="0.00" departLane="1" departPos="178.30" departSpeed="max" arrivalLane="0" arrivalPos="76.86">
        <route edges="edge1 edge0"/>
    </vehicle>
    <vehicle id="-flow-random-route-f8db684e-5a2e-44a2-83c2-8f330924696c-149580754560629390-3-0.0" type="actor-car--8227924996637239053" depart="0.00" departLane="0" departPos="23.82" departSpeed="max" arrivalLane="0" arrivalPos="427.60">
        <route edges="edge0 edge1"/>
    </vehicle>
    <vehicle id="-flow-random-route-01ac3d49-1a30-4d82-b435-9b891c0dbacd-149580754560629390-20-0.1" type="actor-car--8227924996637239053" depart="120.00" departLane="2" departPos="452.58" departSpeed="max" arrivalLane="2" arrivalPos="58.73">
        <route edges="edge1 edge0"/>
    </vehicle>
    <vehicle id="-flow-random-route-0b316fb0-8f2f-451c-bef8-cc9e59570c45-149580754560629390-28-0.1" type="actor-car--8227924996637239053" depart="120.00" departLane="1" departPos="59.61" departSpeed="max" arrivalLane="2" arrivalPos="62.24">
        <route edges="edge0 edge1"/>
    </vehicle>
    <vehicle id="-flow-random-route-2111a1f5-e7a1-4f5c-8441-9722d67e2fc3-149580754560629390-29-0.1" type="actor-car--8227924996637239053" depart="120.00" departLane="1" departPos="34.30" departSpeed="max" arrivalLane="0" arrivalPos="103.16">
        <route edges="edge0 edge1"/>
    </vehicle>
    <vehicle id="-flow-random-route-26d3119e-9cab-45c6-ad6c-1fcb5c653776-149580754560629390-19-0.1" type="actor-car--8227924996637239053" depart="120.00" departLane="1" departPos="15.27" departSpeed="max" arrivalLane="1" arrivalPos="18.71">
        <route edges="edge0 edge1"/>
    </vehicle>
    <vehicle id="-flow-random-route-2ba228ed-9388-4bf1-8341-79f7ea628291-149580754560629390-14-0.1" type="actor-car--8227924996637239053" depart="120.00" departLane="0" departPos="73.93" departSpeed="max" arrivalLane="0" arrivalPos="80.50">
        <route edges="edge0 edge1"/>
    </vehicle>
    <vehicle id="-flow-random-route-37afc873-d55e-48b7-a011-998f129972e8-149580754560629390-4-0.1" type="actor-car--8227924996637239053" depart="120.00" departLane="2" departPos="65.15" departSpeed="max" arrivalLane="2" arrivalPos="446.25">
        <route edges="edge0 edge1"/>
    </vehicle>
    <vehicle id="-flow-random-route-4464b04a-3815-4203-8013-b2e85b62a5c0-149580754560629390-0-0.1" type="actor-car--8227924996637239053" depart="120.00" departLane="0" departPos="62.98" departSpeed="max" arrivalLane="1" arrivalPos="382.56">
        <route edges="edge0 edge1"/>
    </vehicle>
    <vehicle id="-flow-random-route-45f3bfbc-0177-40e2-ade0-1495f21b7e5e-149580754560629390-26-0.1" type="actor-car--8227924996637239053" depart="120.00" departLane="2" departPos="195.29" departSpeed="max" arrivalLane="0" arrivalPos="85.27">
        <route edges="edge1 edge0"/>
    </vehicle>
    <vehicle id="-flow-random-route-6370dc43-3862-4dd7-9b65-048e3136938e-149580754560629390-9-0.1" type="actor-car--8227924996637239053" depart="120.00" departLane="0" departPos="323.34" departSpeed="max" arrivalLane="1" arrivalPos="84.24">
        <route edges="edge1 edge0"/>
    </vehicle>
    <vehicle id="-flow-random-route-7c0272a9-0d1d-48c9-bb3c-bddd3a618111-149580754560629390-17-0.1" type="actor-car--8227924996637239053" depart="120.00" departLane="2" departPos="64.58" departSpeed="max" arrivalLane="2" arrivalPos="98.36">
        <route edges="edge0 edge1"/>
    </vehicle>
    <vehicle id="-flow-random-route-831073c4-0aeb-4838-8796-c65307c4205f-149580754560629390-16-0.1" type="actor-car--8227924996637239053" depart="120.00" departLane="2" departPos="270.85" departSpeed="max" arrivalLane="2" arrivalPos="18.83">
        <route edges="edge1 edge0"/>
    </vehicle>
    <vehicle id="-flow-random-route-848262d0-1905-43cb-a1ac-bb8b85fe4216-149580754560629390-15-0.1" type="actor-car--8227924996637239053" depart="120.00" departLane="1" departPos="18.71" departSpeed="max" arrivalLane="2" arrivalPos="253.27">
        <route edges="edge0 edge1"/>
    </vehicle>
    <vehicle id="-flow-random-route-8c84929b-e519-4c64-b04a-078e733fb064-149580754560629390-23-0.1" type="actor-car--8227924996637239053" depart="120.00" departLane="1" departPos="24.37" departSpeed="max" arrivalLane="1" arrivalPos="407.68">
        <route edges="edge0 edge1"/>
    </vehicle>
    <vehicle id="-flow-random-route-8d5e11eb-bb9c-41a8-b9b3-5e13d51a2ae9-149580754560629390-12-0.1" type="actor-car--8227924996637239053" depart="120.00" departLane="0" departPos="49.52" departSpeed="max" arrivalLane="2" arrivalPos="29.81">
        <route edges="edge0 edge1"/>
    </vehicle>
    <vehicle id="-flow-random-route-921b1b2f-6281-4698-8d81-4e909d29c40c-149580754560629390-22-0.1" type="actor-car--8227924996637239053" depart="120.00" departLane="0" departPos="22.60" departSpeed="max" arrivalLane="1" arrivalPos="52.26">
        <route edges="edge1 edge0"/>
    </vehicle>
    <vehicle id="-flow-random-route-9346b748-2b39-4a45-8531-d9df2aa219d4-149580754560629390-7-0.1" type="actor-car--8227924996637239053" depart="120.00" departLane="2" departPos="479.09" departSpeed="max" arrivalLane="0" arrivalPos="63.38">
        <route edges="edge1 edge0"/>
    </vehicle>
    <vehicle id="-flow-random-route-9910dc97-1bd2-4fe6-8f1c-2750f575fc04-149580754560629390-10-0.1" type="actor-car--8227924996637239053" depart="120.00" departLane="2" departPos="4.63" departSpeed="max" arrivalLane="2" arrivalPos="481.23">
        <route edges="edge0 edge1"/>
    </vehicle>
    <vehicle id="-flow-random-route-99a162b2-99d3-4df5-b29b-5a52cb6b275d-149580754560629390-6-0.1" type="actor-car--8227924996637239053" depart="120.00" departLane="1" departPos="49.98" departSpeed="max" arrivalLane="1" arrivalPos="8.27">
        <route edges="edge1 edge0"/>
    </vehicle>
    <vehicle id="-flow-random-route-b01838be-9db6-464c-95da-f31a933398ce-149580754560629390-2-0.1" type="actor-car--8227924996637239053" depart="120.00" departLane="2" departPos="85.17" departSpeed="max" arrivalLane="2" arrivalPos="122.93">
        <route edges="edge0 edge1"/>
    </vehicle>
    <vehicle id="-flow-random-route-bc6267c4-4fbe-42ab-9b08-c5ab76cb57ea-149580754560629390-8-0.1" type="actor-car--8227924996637239053" depart="120.00" departLane="1" departPos="216.02" departSpeed="max" arrivalLane="2" arrivalPos="18.27">
        <route edges="edge1 edge0"/>
    </vehicle>
    <vehicle id="-flow-random-route-be7c6746-74b9-49de-a65c-6480ceb8c93f-149580754560629390-24-0.1" type="actor-car--8227924996637239053" depart="120.00" departLane="1" departPos="117.08" departSpeed="max" arrivalLane="0" arrivalPos="75.07">
        <route edges="edge1 edge0"/>
    </vehicle>
    <vehicle id="-flow-random-route-bf3c2bd0-775a-4849-b026-a4f9f6c72196-149580754560629390-25-0.1" type="actor-car--8227924996637239053" depart="120.00" departLane="1" departPos="58.62" departSpeed="max" arrivalLane="2" arrivalPos="21.05">
        <route edges="edge1 edge0"/>
    </vehicle>
    <vehicle id="-flow-random-route-bfde41e8-a8f6-4696-a6d6-5ee5eeda2afc-149580754560629390-27-0.1" type="actor-car--8227924996637239053" depart="120.00" departLane="2" departPos="55.19" departSpeed="max" arrivalLane="1" arrivalPos="154.60">
        <route edges="edge0 edge1"/>
    </vehicle>
    <vehicle id="-flow-random-route-c513e7c0-0b7d-4b74-9ab5-6a3232b95438-149580754560629390-5-0.1" type="actor-car--8227924996637239053" depart="120.00" departLane="1" departPos="149.23" departSpeed="max" arrivalLane="0" arrivalPos="19.06">
        <route edges="edge1 edge0"/>
    </vehicle>
    <vehicle id="-flow-random-route-d0ddcfae-d18e-42ff-84b1-e04337ba1a88-149580754560629390-13-0.1" type="actor-car--8227924996637239053" depart="120.00" departLane="2" departPos="11.31" departSpeed="max" arrivalLane="2" arrivalPos="281.75">
        <route edges="edge0 edge1"/>
    </vehicle>
    <vehicle id="-flow-random-route-d4f40180-ed5d-455e-8e07-2612a840334a-149580754560629390-1-0.1" type="actor-car--8227924996637239053" depart="120.00" departLane="2" departPos="80.08" departSpeed="max" arrivalLane="2" arrivalPos="34.91">
        <route edges="edge0 edge1"/>
    </vehicle>
    <vehicle id="-flow-random-route-d6f1cc25-e9c3-4569-a5de-908ae4828355-149580754560629390-21-0.1" type="actor-car--8227924996637239053" depart="120.00" departLane="2" departPos="102.99" departSpeed="max" arrivalLane="1" arrivalPos="17.41">
        <route edges="edge1 edge0"/>
    </vehicle>
    <vehicle id="-flow-random-route-eed44b39-39d7-4e13-a6f0-929887b089e6-149580754560629390-18-0.1" type="actor-car--8227924996637239053" depart="120.00" departLane="0" departPos="247.10" departSpeed="max" arrivalLane="0" arrivalPos="47.99">
        <route edges="edge1 edge0"/>
    </vehicle>
    <vehicle id="-flow-random-route-f307c786-41bb-4b12-ae38-448ab5882979-149580754560629390-11-0.1" type="actor-car--8227924996637239053" depart="120.00" departLane="1" departPos="178.30" departSpeed="max" arrivalLane="0" arrivalPos="76.86">
        <route edges="edge1 edge0"/>
    </vehicle>
    <vehicle id="-flow-random-route-f8db684e-5a2e-44a2-83c2-8f330924696c-149580754560629390-3-0.1" type="actor-car--8227924996637239053" depart="120.00" departLane="0" departPos="23.82" departSpeed="max" arrivalLane="0" arrivalPos="427.60">
        <route edges="edge0 edge1"/>
    </vehicle>
    <vehicle id="-flow-random-route-01ac3d49-1a30-4d82-b435-9b891c0dbacd-149580754560629390-20-0.2" type="actor-car--8227924996637239053" depart="240.00" departLane="2" departPos="452.58" departSpeed="max" arrivalLane="2" arrivalPos="58.73">
        <route edges="edge1 edge0"/>
    </vehicle>
    <vehicle id="-flow-random-route-0b316fb0-8f2f-451c-bef8-cc9e59570c45-149580754560629390-28-0.2" type="actor-car--8227924996637239053" depart="240.00" departLane="1" departPos="59.61" departSpeed="max" arrivalLane="2" arrivalPos="62.24">
        <route edges="edge0 edge1"/>
    </vehicle>
    <vehicle id="-flow-random-route-2111a1f5-e7a1-4f5c-8441-9722d67e2fc3-149580754560629390-29-0.2" type="actor-car--8227924996637239053" depart="240.00" departLane="1" departPos="34.30" departSpeed="max" arrivalLane="0" arrivalPos="103.16">
        <route edges="edge0 edge1"/>
    </vehicle>
    <vehicle id="-flow-random-route-26d3119e-9cab-45c6-ad6c-1fcb5c653776-149580754560629390-19-0.2" type="actor-car--8227924996637239053" depart="240.00" departLane="1" departPos="15.27" departSpeed="max" arrivalLane="1" arrivalPos="18.71">
        <route edges="edge0 edge1"/>
    </vehicle>
    <vehicle id="-flow-random-route-2ba228ed-9388-4bf1-8341-79f7ea628291-149580754560629390-14-0.2" type="actor-car--8227924996637239053" depart="240.00" departLane="0" departPos="73.93" departSpeed="max" arrivalLane="0" arrivalPos="80.50">
        <route edges="edge0 edge1"/>
    </vehicle>
    <vehicle id="-flow-random-route-37afc873-d55e-48b7-a011-998f129972e8-149580754560629390-4-0.2" type="actor-car--8227924996637239053" depart="240.00" departLane="2" departPos="65.15" departSpeed="max" arrivalLane="2" arrivalPos="446.25">
        <route edges="edge0 edge1"/>
    </vehicle>
    <vehicle id="-flow-random-route-4464b04a-3815-4203-8013-b2e85b62a5c0-149580754560629390-0-0.2" type="actor-car--8227924996637239053" depart="240.00" departLane="0" departPos="62.98" departSpeed="max" arrivalLane="1" arrivalPos="382.56">
        <route edges="edge0 edge1"/>
    </vehicle>
    <vehicle id="-flow-random-route-45f3bfbc-0177-40e2-ade0-1495f21b7e5e-149580754560629390-26-0.2" type="actor-car--8227924996637239053" depart="240.00" departLane="2" departPos="195.29" departSpeed="max" arrivalLane="0" arrivalPos="85.27">
        <route edges="edge1 edge0"/>
    </vehicle>
    <vehicle id="-flow-random-route-6370dc43-3862-4dd7-9b65-048e3136938e-149580754560629390-9-0.2" type="actor-car--8227924996637239053" depart="240.00" departLane="0" departPos="323.34" departSpeed="max" arrivalLane="1" arrivalPos="84.24">
        <route edges="edge1 edge0"/>
    </vehicle>
    <vehicle id="-flow-random-route-7c0272a9-0d1d-48c9-bb3c-bddd3a618111-149580754560629390-17-0.2" type="actor-car--8227924996637239053" depart="240.00" departLane="2" departPos="64.58" departSpeed="max" arrivalLane="2" arrivalPos="98.36">
        <route edges="edge0 edge1"/>
    </vehicle>
    <vehicle id="-flow-random-route-831073c4-0aeb-4838-8796-c65307c4205f-149580754560629390-16-0.2" type="actor-car--8227924996637239053" depart="240.00" departLane="2" departPos="270.85" departSpeed="max" arrivalLane="2" arrivalPos="18.83">
        <route edges="edge1 edge0"/>
    </vehicle>
    <vehicle id="-flow-random-route-848262d0-1905-43cb-a1ac-bb8b85fe4216-149580754560629390-15-0.2" type="actor-car--8227924996637239053" depart="240.00" departLane="1" departPos="18.71" departSpeed="max" arrivalLane="2" arrivalPos="253.27">
        <route edges="edge0 edge1"/>
    </vehicle>
    <vehicle id="-flow-random-route-8c84929b-e519-4c64-b04a-078e733fb064-149580754560629390-23-0.2" type="actor-car--8227924996637239053" depart="240.00" departLane="1" departPos="24.37" departSpeed="max" arrivalLane="1" arrivalPos="407.68">
        <route edges="edge0 edge1"/>
    </vehicle>
    <vehicle id="-flow-random-route-8d5e11eb-bb9c-41a8-b9b3-5e13d51a2ae9-149580754560629390-12-0.2" type="actor-car--8227924996637239053" depart="240.00" departLane="0" departPos="49.52" departSpeed="max" arrivalLane="2" arrivalPos="29.81">
        <route edges="edge0 edge1"/>
    </vehicle>
    <vehicle id="-flow-random-route-921b1b2f-6281-4698-8d81-4e909d29c40c-149580754560629390-22-0.2" type="actor-car--8227924996637239053" depart="240.00" departLane="0" departPos="22.60" departSpeed="max" arrivalLane="1" arrivalPos="52.26">
        <route edges="edge1 edge0"/>
    </vehicle>
    <vehicle id="-flow-random-route-9346b748-2b39-4a45-8531-d9df2aa219d4-149580754560629390-7-0.2" type="actor-car--8227924996637239053" depart="240.00" departLane="2" departPos="479.09" departSpeed="max" arrivalLane="0" arrivalPos="63.38">
        <route edges="edge1 edge0"/>
    </vehicle>
    <vehicle id="-flow-random-route-9910dc97-1bd2-4fe6-8f1c-2750f575fc04-149580754560629390-10-0.2" type="actor-car--8227924996637239053" depart="240.00" departLane="2" departPos="4.63" departSpeed="max" arrivalLane="2" arrivalPos="481.23">
        <route edges="edge0 edge1"/>
    </vehicle>
    <vehicle id="-flow-random-route-99a162b2-99d3-4df5-b29b-5a52cb6b275d-149580754560629390-6-0.2" type="actor-car--8227924996637239053" depart="240.00" departLane="1" departPos="49.98" departSpeed="max" arrivalLane="1" arrivalPos="8.27">
        <route edges="edge1 edge0"/>
    </vehicle>
    <vehicle id="-flow-random-route-b01838be-9db6-464c-95da-f31a933398ce-149580754560629390-2-0.2" type="actor-car--8227924996637239053" depart="240.00" departLane="2" departPos="85.17" departSpeed="max" arrivalLane="2" arrivalPos="122.93">
        <route edges="edge0 edge1"/>
    </vehicle>
    <vehicle id="-flow-random-route-bc6267c4-4fbe-42ab-9b08-c5ab76cb57ea-149580754560629390-8-0.2" type="actor-car--8227924996637239053" depart="240.00" departLane="1" departPos="216.02" departSpeed="max" arrivalLane="2" arrivalPos="18.27">
        <route edges="edge1 edge0"/>
    </vehicle>
    <vehicle id="-flow-random-route-be7c6746-74b9-49de-a65c-6480ceb8c93f-149580754560629390-24-0.2" type="actor-car--8227924996637239053" depart="240.00" departLane="1" departPos="117.08" departSpeed="max" arrivalLane="0" arrivalPos="75.07">
        <route edges="edge1 edge0"/>
    </vehicle>
    <vehicle id="-flow-random-route-bf3c2bd0-775a-4849-b026-a4f9f6c72196-149580754560629390-25-0.2" type="actor-car--8227924996637239053" depart="240.00" departLane="1" departPos="58.62" departSpeed="max" arrivalLane="2" arrivalPos="21.05">
        <route edges="edge1 edge0"/>
    </vehicle>
    <vehicle id="-flow-random-route-bfde41e8-a8f6-4696-a6d6-5ee5eeda2afc-149580754560629390-27-0.2" type="actor-car--8227924996637239053" depart="240.00" departLane="2" departPos="55.19" departSpeed="max" arrivalLane="1" arrivalPos="154.60">
        <route edges="edge0 edge1"/>
    </vehicle>
    <vehicle id="-flow-random-route-c513e7c0-0b7d-4b74-9ab5-6a3232b95438-149580754560629390-5-0.2" type="actor-car--8227924996637239053" depart="240.00" departLane="1" departPos="149.23" departSpeed="max" arrivalLane="0" arrivalPos="19.06">
        <route edges="edge1 edge0"/>
    </vehicle>
    <vehicle id="-flow-random-route-d0ddcfae-d18e-42ff-84b1-e04337ba1a88-149580754560629390-13-0.2" type="actor-car--8227924996637239053" depart="240.00" departLane="2" departPos="11.31" departSpeed="max" arrivalLane="2" arrivalPos="281.75">
        <route edges="edge0 edge1"/>
    </vehicle>
    <vehicle id="-flow-random-route-d4f40180-ed5d-455e-8e07-2612a840334a-149580754560629390-1-0.2" type="actor-car--8227924996637239053" depart="240.00" departLane="2" departPos="80.08" departSpeed="max" arrivalLane="2" arrivalPos="34.91">
        <route edges="edge0 edge1"/>
    </vehicle>
    <vehicle id="-flow-random-route-d6f1cc25-e9c3-4569-a5de-908ae4828355-149580754560629390-21-0.2" type="actor-car--8227924996637239053" depart="240.00" departLane="2" departPos="102.99" departSpeed="max" arrivalLane="1" arrivalPos="17.41">
        <route edges="edge1 edge0"/>
    </vehicle>
    <vehicle id="-flow-random-route-eed44b39-39d7-4e13-a6f0-929887b089e6-149580754560629390-18-0.2" type="actor-car--8227924996637239053" depart="240.00" departLane="0" departPos="247.10" departSpeed="max" arrivalLane="0" arrivalPos="47.99">
        <route edges="edge1 edge0"/>
    </vehicle>
    <vehicle id="-flow-random-route-f307c786-41bb-4b12-ae38-448ab5882979-149580754560629390-11-0.2" type="actor-car--8227924996637239053" depart="240.00" departLane="1" departPos="178.30" departSpeed="max" arrivalLane="0" arrivalPos="76.86">
        <route edges="edge1 edge0"/>
    </vehicle>
    <vehicle id="-flow-random-route-f8db684e-5a2e-44a2-83c2-8f330924696c-149580754560629390-3-0.2" type="actor-car--8227924996637239053" depart="240.00" departLane="0" departPos="23.82" departSpeed="max" arrivalLane="0" arrivalPos="427.60">
        <route edges="edge0 edge1"/>
    </vehicle>
    <vehicle id="-flow-random-route-01ac3d49-1a30-4d82-b435-9b891c0dbacd-149580754560629390-20-0.3" type="actor-car--8227924996637239053" depart="360.00" departLane="2" departPos="452.58" departSpeed="max" arrivalLane="2" arrivalPos="58.73">
        <route edges="edge1 edge0"/>
    </vehicle>
    <vehicle id="-flow-random-route-0b316fb0-8f2f-451c-bef8-cc9e59570c45-149580754560629390-28-0.3" type="actor-car--8227924996637239053" depart="360.00" departLane="1" departPos="59.61" departSpeed="max" arrivalLane="2" arrivalPos="62.24">
        <route edges="edge0 edge1"/>
    </vehicle>
    <vehicle id="-flow-random-route-2111a1f5-e7a1-4f5c-8441-9722d67e2fc3-149580754560629390-29-0.3" type="actor-car--8227924996637239053" depart="360.00" departLane="1" departPos="34.30" departSpeed="max" arrivalLane="0" arrivalPos="103.16">
        <route edges="edge0 edge1"/>
    </vehicle>
    <vehicle id="-flow-random-route-26d3119e-9cab-45c6-ad6c-1fcb5c653776-149580754560629390-19-0.3" type="actor-car--8227924996637239053" depart="360.00" departLane="1" departPos="15.27" departSpeed="max" arrivalLane="1" arrivalPos="18.71">
        <route edges="edge0 edge1"/>
    </vehicle>
    <vehicle id="-flow-random-route-2ba228ed-9388-4bf1-8341-79f7ea628291-149580754560629390-14-0.3" type="actor-car--8227924996637239053" depart="360.00" departLane="0" departPos="73.93" departSpeed="max" arrivalLane="0" arrivalPos="80.50">
        <route edges="edge0 edge1"/>
    </vehicle>
    <vehicle id="-flow-random-route-37afc873-d55e-48b7-a011-998f129972e8-149580754560629390-4-0.3" type="actor-car--8227924996637239053" depart="360.00" departLane="2" departPos="65.15" departSpeed="max" arrivalLane="2" arrivalPos="446.25">
        <route edges="edge0 edge1"/>
    </vehicle>
    <vehicle id="-flow-random-route-4464b04a-3815-4203-8013-b2e85b62a5c0-149580754560629390-0-0.3" type="actor-car--8227924996637239053" depart="360.00" departLane="0" departPos="62.98" departSpeed="max" arrivalLane="1" arrivalPos="382.56">
        <route edges="edge0 edge1"/>
    </vehicle>