<?xml version="1.0" encoding="UTF-8"?>

<!-- generated on Fri Sep 18 07:26:19 2020 by Eclipse SUMO duarouter Version 1.6.0
<configuration xmlns:xsi="http://www.w3.org/2001/XMLSchema-instance" xsi:noNamespaceSchemaLocation="http://sumo.dlr.de/xsd/duarouterConfiguration.xsd">

    <input>
        <net-file value="dataset_public/mixed_loop/roundabout_merge_b/map.net.xml"/>
        <route-files value="/tmp/tmp_s1k7gxu/trips.trips.xml"/>
    </input>

    <output>
        <output-file value="dataset_public/mixed_loop/roundabout_merge_b/traffic/30_patient_car.rou.xml"/>
        <alternatives-output value="dataset_public/mixed_loop/roundabout_merge_b/traffic/30_patient_car.rou.alt.xml"/>
    </output>

    <processing>
        <unsorted-input value="true"/>
        <repair value="true"/>
    </processing>

    <report>
        <error-log value="/tmp/smarts/_duarouter_routing/traffic/30_patient_car.log"/>
        <no-step-log value="true"/>
    </report>

    <random_number>
        <seed value="42"/>
    </random_number>

</configuration>
-->

<routes xmlns:xsi="http://www.w3.org/2001/XMLSchema-instance" xsi:noNamespaceSchemaLocation="http://sumo.dlr.de/xsd/routes_file.xsd">
    <vType id="actor-car-4175390300716139454" minGap="2.50" speedFactor="normc(0.50,0.20,0.20,2.00)" vClass="passenger" impatience="0.50" lcCooperative="0.5" lcImpatience="0" jmDriveAfterYellowTime="1.0" accel="2.6" decel="4.5" sigma="0.5"/>
    <vehicle id="-flow-random-route-0b511d4f-b559-49dd-a9ee-0c0eec93ae2f-1768727502292401452-22-0.0" type="actor-car-4175390300716139454" depart="0.00" departLane="1" departPos="49.46" departSpeed="max" arrivalLane="0" arrivalPos="11.60">
        <route edges="gneE61 gneE62 gneE78 gneE78.64 gneE80 edge-east-EN edge-north-NW edge-west-WS gneE60 gneE60.110"/>
    </vehicle>
    <vehicle id="-flow-random-route-26f5321a-f7a0-4eb2-9280-789389f54914-1768727502292401452-17-0.0" type="actor-car-4175390300716139454" depart="0.00" departLane="0" departPos="101.18" departSpeed="max" arrivalLane="1" arrivalPos="3.53">
        <route edges="gneE78.64 gneE80 edge-east-EN edge-north-NW edge-west-WS gneE60 gneE60.110 gneE61 gneE62 gneE78"/>
    </vehicle>
    <vehicle id="-flow-random-route-27a46573-8579-4f48-b6eb-e67740723c2b-1768727502292401452-6-0.0" type="actor-car-4175390300716139454" depart="0.00" departLane="0" departPos="3.27" departSpeed="max" arrivalLane="0" arrivalPos="41.39">
        <route edges="gneE80 edge-east-EN edge-north-NW edge-west-WS gneE60 gneE60.110 gneE61 gneE62 gneE69 gneE71"/>
    </vehicle>
    <vehicle id="-flow-random-route-37a48c05-cade-4e67-ae0d-849096d69efe-1768727502292401452-21-0.0" type="actor-car-4175390300716139454" depart="0.00" departLane="0" departPos="52.41" departSpeed="max" arrivalLane="1" arrivalPos="40.72">
        <route edges="edge-west-WS gneE60 gneE60.110"/>
    </vehicle>
    <vehicle id="-flow-random-route-3af117b8-b45e-4be9-83ef-e2b391c9d886-1768727502292401452-13-0.0" type="actor-car-4175390300716139454" depart="0.00" departLane="0" departPos="55.69" departSpeed="max" arrivalLane="0" arrivalPos="90.96">
        <route edges="gneE60 gneE60.110 gneE61"/>
    </vehicle>
    <vehicle id="-flow-random-route-43292cad-f66a-4e88-8b56-29908e45492b-1768727502292401452-23-0.0" type="actor-car-4175390300716139454" depart="0.00" departLane="0" departPos="22.02" departSpeed="max" arrivalLane="1" arrivalPos="8.41">
        <route edges="gneE78 gneE81 gneE60.110"/>
    </vehicle>
    <vehicle id="-flow-random-route-4658a54b-e2ef-4b0f-b898-1881d022073b-1768727502292401452-20-0.0" type="actor-car-4175390300716139454" depart="0.00" departLane="0" departPos="30.78" departSpeed="max" arrivalLane="0" arrivalPos="31.12">
        <route edges="gneE61 gneE62 gneE69 gneE71 edge-west-WS edge-south-SE"/>
    </vehicle>
    <vehicle id="-flow-random-route-494512e0-ad27-4418-a0b4-4f922534761b-1768727502292401452-12-0.0" type="actor-car-4175390300716139454" depart="0.00" departLane="1" departPos="82.06" departSpeed="max" arrivalLane="1" arrivalPos="33.00">
        <route edges="gneE69 gneE71 edge-west-WS edge-south-SE edge-east-EN edge-north-NW edge-west-WS gneE60 gneE60.110 gneE61"/>
    </vehicle>
    <vehicle id="-flow-random-route-50bcf1e5-7e5d-4e1e-a8f3-56247b3d84db-1768727502292401452-1-0.0" type="actor-car-4175390300716139454" depart="0.00" departLane="0" departPos="78.10" departSpeed="max" arrivalLane="0" arrivalPos="70.54">
        <route edges="gneE60 gneE60.110 gneE61 gneE62 gneE78 gneE81 gneE60.110 gneE61 gneE62 gneE69"/>
    </vehicle>
    <vehicle id="-flow-random-route-5654ed06-5d03-42ca-9644-e910cb9b4a36-1768727502292401452-8-0.0" type="actor-car-4175390300716139454" depart="0.00" departLane="1" departPos="3.56" departSpeed="max" arrivalLane="1" arrivalPos="60.25">
        <route edges="gneE80 edge-east-EN edge-north-NW edge-west-WS gneE60 gneE60.110 gneE61 gneE62 gneE78 gneE81"/>
    </vehicle>
    <vehicle id="-flow-random-route-5741d2b9-0142-48d5-a010-ffb59d46b452-1768727502292401452-24-0.0" type="actor-car-4175390300716139454" depart="0.00" departLane="0" departPos="30.31" departSpeed="max" arrivalLane="1" arrivalPos="12.71">
        <route edges="gneE78 gneE78.64 gneE80 edge-east-EN edge-north-NW edge-west-WS"/>
    </vehicle>
    <vehicle id="-flow-random-route-5f642652-5907-40ca-a474-5bc77b94c406-1768727502292401452-25-0.0" type="actor-car-4175390300716139454" depart="0.00" departLane="0" departPos="9.90" departSpeed="max" arrivalLane="1" arrivalPos="15.45">
        <route edges="gneE60.110 gneE61 gneE62 gneE78 gneE78.64 gneE80 edge-east-EN edge-north-NW edge-west-WS gneE60"/>
    </vehicle>
    <vehicle id="-flow-random-route-62ccbde6-09c0-4965-b4db-a4058125fab5-1768727502292401452-27-0.0" type="actor-car-4175390300716139454" depart="0.00" departLane="1" departPos="33.08" departSpeed="max" arrivalLane="1" arrivalPos="74.45">
        <route edges="edge-west-WS edge-south-SE edge-east-EN edge-north-NW edge-west-WS edge-south-SE edge-east-EN edge-north-NW edge-west-WS gneE60"/>
    </vehicle>
    <vehicle id="-flow-random-route-71284f64-8e77-472b-aff7-d7c6c642b44f-1768727502292401452-29-0.0" type="actor-car-4175390300716139454" depart="0.00" departLane="1" departPos="42.04" departSpeed="max" arrivalLane="1" arrivalPos="26.39">
        <route edges="edge-north-NW edge-west-WS gneE60"/>
    </vehicle>
    <vehicle id="-flow-random-route-75754f5b-ff3b-435b-b47c-d0ee4e94ac02-1768727502292401452-16-0.0" type="actor-car-4175390300716139454" depart="0.00" departLane="0" departPos="62.36" departSpeed="max" arrivalLane="1" arrivalPos="71.78">
        <route edges="gneE61 gneE62 gneE69"/>
    </vehicle>
    <vehicle id="-flow-random-route-7855e92b-7b40-4ebe-96a4-60e5725c0e3e-1768727502292401452-18-0.0" type="actor-car-4175390300716139454" depart="0.00" departLane="0" departPos="13.06" departSpeed="max" arrivalLane="1" arrivalPos="20.19">
        <route edges="edge-south-SE edge-east-EN edge-north-NW edge-west-WS gneE60 gneE60.110 gneE61 gneE62 gneE69 gneE71"/>
    </vehicle>
    <vehicle id="-flow-random-route-7c25365e-83a8-49c8-a623-4a3e15aa5f8a-1768727502292401452-14-0.0" type="actor-car-4175390300716139454" depart="0.00" departLane="0" departPos="73.53" departSpeed="max" arrivalLane="0" arrivalPos="12.51">
        <route edges="gneE71 edge-west-WS"/>
    </vehicle>
    <vehicle id="-flow-random-route-8c184762-4dd0-42ff-a26d-d8b9ca587d57-1768727502292401452-19-0.0" type="actor-car-4175390300716139454" depart="0.00" departLane="1" departPos="131.86" departSpeed="max" arrivalLane="0" arrivalPos="24.29">
        <route edges="gneE69 gneE71 edge-west-WS edge-south-SE edge-east-EN edge-north-NW"/>
    </vehicle>
    <vehicle id="-flow-random-route-8dded405-d318-4965-92cc-866ff64e0d12-1768727502292401452-2-0.0" type="actor-car-4175390300716139454" depart="0.00" departLane="0" departPos="1.17" departSpeed="max" arrivalLane="0" arrivalPos="16.29">
        <route edges="gneE61 gneE62 gneE78 gneE81 gneE60.110 gneE61 gneE62 gneE69 gneE71 edge-west-WS"/>
    </vehicle>
    <vehicle id="-flow-random-route-a20c05c6-767d-4d04-b113-9251a5a87c83-1768727502292401452-11-0.0" type="actor-car-4175390300716139454" depart="0.00" departLane="1" departPos="13.59" departSpeed="max" arrivalLane="0" arrivalPos="46.89">
        <route edges="edge-east-EN edge-north-NW edge-west-WS"/>
    </vehicle>
    <vehicle id="-flow-random-route-b90e2724-34c5-46f7-aec6-082b58b18481-1768727502292401452-10-0.0" type="actor-car-4175390300716139454" depart="0.00" departLane="1" departPos="35.74" departSpeed="max" arrivalLane="1" arrivalPos="63.88">
        <route edges="edge-north-NW edge-west-WS"/>
    </vehicle>
    <vehicle id="-flow-random-route-b97dccb3-e6f9-4cf2-b2a7-5ae2a39e4008-1768727502292401452-4-0.0" type="actor-car-4175390300716139454" depart="0.00" departLane="1" departPos="12.36" departSpeed="max" arrivalLane="1" arrivalPos="32.63">
        <route edges="gneE71 edge-west-WS gneE60 gneE60.110 gneE61 gneE62 gneE78 gneE78.64 gneE80 edge-east-EN"/>
    </vehicle>
    <vehicle id="-flow-random-route-bc5f15a8-50fc-40ac-ba0d-378c12d0d0dc-1768727502292401452-28-0.0" type="actor-car-4175390300716139454" depart="0.00" departLane="0" departPos="3.31" departSpeed="max" arrivalLane="0" arrivalPos="70.01">
        <route edges="gneE69 gneE71 edge-west-WS"/>
    </vehicle>
    <vehicle id="-flow-random-route-cec23ff9-1149-472d-9ede-0aa272268a97-1768727502292401452-0-0.0" type="actor-car-4175390300716139454" depart="0.00" departLane="0" departPos="63.78" departSpeed="max" arrivalLane="0" arrivalPos="39.79">
        <route edges="gneE71 edge-west-WS edge-south-SE edge-east-EN edge-north-NW edge-west-WS gneE60 gneE60.110 gneE61 gneE62"/>
    </vehicle>
    <vehicle id="-flow-random-route-e6c8f9de-ae62-46a4-88f6-27db1f0c213f-1768727502292401452-5-0.0" type="actor-car-4175390300716139454" depart="0.00" departLane="0" departPos="66.09" departSpeed="max" arrivalLane="0" arrivalPos="37.10">
        <route edges="edge-west-WS gneE60 gneE60.110"/>
    </vehicle>
    <vehicle id="-flow-random-route-ed26f1f0-5888-4b38-8431-aa66dbe37eeb-1768727502292401452-15-0.0" type="actor-car-4175390300716139454" depart="0.00" departLane="0" departPos="30.38" departSpeed="max" arrivalLane="0" arrivalPos="43.00">
        <route edges="gneE62 gneE78 gneE78.64 gneE80 edge-east-EN edge-north-NW"/>
    </vehicle>
    <vehicle id="-flow-random-route-ed388a23-8c89-483d-aafb-cb292b361638-1768727502292401452-7-0.0" type="actor-car-4175390300716139454" depart="0.00" departLane="1" departPos="94.83" departSpeed="max" arrivalLane="1" arrivalPos="14.46">
        <route edges="gneE78.64 gneE80 edge-east-EN edge-north-NW edge-west-WS edge-south-SE"/>
    </vehicle>
    <vehicle id="-flow-random-route-ee493787-e382-4664-913f-acdcf605a970-1768727502292401452-3-0.0" type="actor-car-4175390300716139454" depart="0.00" departLane="0" departPos="28.40" departSpeed="max" arrivalLane="1" arrivalPos="28.54">
        <route edges="gneE78 gneE78.64 gneE80 edge-east-EN edge-north-NW edge-west-WS"/>
    </vehicle>
    <vehicle id="-flow-random-route-f2a14b6d-ea0b-41a7-b678-2725bb3d8ae6-1768727502292401452-9-0.0" type="actor-car-4175390300716139454" depart="0.00" departLane="1" departPos="93.57" departSpeed="max" arrivalLane="0" arrivalPos="3.26">
        <route edges="gneE61 gneE62 gneE78 gneE81 gneE60.110 gneE61 gneE62 gneE69 gneE71 edge-west-WS"/>
    </vehicle>
    <vehicle id="-flow-random-route-fed02930-80ba-47e3-adf1-a4a285ca7553-1768727502292401452-26-0.0" type="actor-car-4175390300716139454" depart="0.00" departLane="1" departPos="14.91" departSpeed="max" arrivalLane="1" arrivalPos="77.33">
        <route edges="edge-west-WS edge-south-SE edge-east-EN edge-north-NW edge-west-WS edge-south-SE edge-east-EN edge-north-NW edge-west-WS gneE60"/>
    </vehicle>
    <vehicle id="-flow-random-route-0b511d4f-b559-49dd-a9ee-0c0eec93ae2f-1768727502292401452-22-0.1" type="actor-car-4175390300716139454" depart="120.00" departLane="1" departPos="49.46" departSpeed="max" arrivalLane="0" arrivalPos="11.60">
        <route edges="gneE61 gneE62 gneE78 gneE78.64 gneE80 edge-east-EN edge-north-NW edge-west-WS gneE60 gneE60.110"/>
    </vehicle>
    <vehicle id="-flow-random-route-26f5321a-f7a0-4eb2-9280-789389f54914-1768727502292401452-17-0.1" type="actor-car-4175390300716139454" depart="120.00" departLane="0" departPos="101.18" departSpeed="max" arrivalLane="1" arrivalPos="3.53">
        <route edges="gneE78.64 gneE80 edge-east-EN edge-north-NW edge-west-WS gneE60 gneE60.110 gneE61 gneE62 gneE78"/>
    </vehicle>
    <vehicle id="-flow-random-route-27a46573-8579-4f48-b6eb-e67740723c2b-1768727502292401452-6-0.1" type="actor-car-4175390300716139454" depart="120.00" departLane="0" departPos="3.27" departSpeed="max" arrivalLane="0" arrivalPos="41.39">
        <route edges="gneE80 edge-east-EN edge-north-NW edge-west-WS gneE60 gneE60.110 gneE61 gneE62 gneE69 gneE71"/>
    </vehicle>
    <vehicle id="-flow-random-route-37a48c05-cade-4e67-ae0d-849096d69efe-1768727502292401452-21-0.1" type="actor-car-4175390300716139454" depart="120.00" departLane="0" departPos="52.41" departSpeed="max" arrivalLane="1" arrivalPos="40.72">
        <route edges="edge-west-WS gneE60 gneE60.110"/>
    </vehicle>
    <vehicle id="-flow-random-route-3af117b8-b45e-4be9-83ef-e2b391c9d886-1768727502292401452-13-0.1" type="actor-car-4175390300716139454" depart="120.00" departLane="0" departPos="55.69" departSpeed="max" arrivalLane="0" arrivalPos="90.96">
        <route edges="gneE60 gneE60.110 gneE61"/>
    </vehicle>
    <vehicle id="-flow-random-route-43292cad-f66a-4e88-8b56-29908e45492b-1768727502292401452-23-0.1" type="actor-car-4175390300716139454" depart="120.00" departLane="0" departPos="22.02" departSpeed="max" arrivalLane="1" arrivalPos="8.41">
        <route edges="gneE78 gneE81 gneE60.110"/>
    </vehicle>
    <vehicle id="-flow-random-route-4658a54b-e2ef-4b0f-b898-1881d022073b-1768727502292401452-20-0.1" type="actor-car-4175390300716139454" depart="120.00" departLane="0" departPos="30.78" departSpeed="max" arrivalLane="0" arrivalPos="31.12">
        <route edges="gneE61 gneE62 gneE69 gneE71 edge-west-WS edge-south-SE"/>
    </vehicle>
    <vehicle id="-flow-random-route-494512e0-ad27-4418-a0b4-4f922534761b-1768727502292401452-12-0.1" type="actor-car-4175390300716139454" depart="120.00" departLane="1" departPos="82.06" departSpeed="max" arrivalLane="1" arrivalPos="33.00">
        <route edges="gneE69 gneE71 edge-west-WS edge-south-SE edge-east-EN edge-north-NW edge-west-WS gneE60 gneE60.110 gneE61"/>
    </vehicle>
    <vehicle id="-flow-random-route-50bcf1e5-7e5d-4e1e-a8f3-56247b3d84db-1768727502292401452-1-0.1" type="actor-car-4175390300716139454" depart="120.00" departLane="0" departPos="78.10" departSpeed="max" arrivalLane="0" arrivalPos="70.54">
        <route edges="gneE60 gneE60.110 gneE61 gneE62 gneE78 gneE81 gneE60.110 gneE61 gneE62 gneE69"/>
    </vehicle>
    <vehicle id="-flow-random-route-5654ed06-5d03-42ca-9644-e910cb9b4a36-1768727502292401452-8-0.1" type="actor-car-4175390300716139454" depart="120.00" departLane="1" departPos="3.56" departSpeed="max" arrivalLane="1" arrivalPos="60.25">
        <route edges="gneE80 edge-east-EN edge-north-NW edge-west-WS gneE60 gneE60.110 gneE61 gneE62 gneE78 gneE81"/>
    </vehicle>
    <vehicle id="-flow-random-route-5741d2b9-0142-48d5-a010-ffb59d46b452-1768727502292401452-24-0.1" type="actor-car-4175390300716139454" depart="120.00" departLane="0" departPos="30.31" departSpeed="max" arrivalLane="1" arrivalPos="12.71">
        <route edges="gneE78 gneE78.64 gneE80 edge-east-EN edge-north-NW edge-west-WS"/>
    </vehicle>
    <vehicle id="-flow-random-route-5f642652-5907-40ca-a474-5bc77b94c406-1768727502292401452-25-0.1" type="actor-car-4175390300716139454" depart="120.00" departLane="0" departPos="9.90" departSpeed="max" arrivalLane="1" arrivalPos="15.45">
        <route edges="gneE60.110 gneE61 gneE62 gneE78 gneE78.64 gneE80 edge-east-EN edge-north-NW edge-west-WS gneE60"/>
    </vehicle>
    <vehicle id="-flow-random-route-62ccbde6-09c0-4965-b4db-a4058125fab5-1768727502292401452-27-0.1" type="actor-car-4175390300716139454" depart="120.00" departLane="1" departPos="33.08" departSpeed="max" arrivalLane="1" arrivalPos="74.45">
        <route edges="edge-west-WS edge-south-SE edge-east-EN edge-north-NW edge-west-WS edge-south-SE edge-east-EN edge-north-NW edge-west-WS gneE60"/>
    </vehicle>
    <vehicle id="-flow-random-route-71284f64-8e77-472b-aff7-d7c6c642b44f-1768727502292401452-29-0.1" type="actor-car-4175390300716139454" depart="120.00" departLane="1" departPos="42.04" departSpeed="max" arrivalLane="1" arrivalPos="26.39">
        <route edges="edge-north-NW edge-west-WS gneE60"/>
    </vehicle>
    <vehicle id="-flow-random-route-75754f5b-ff3b-435b-b47c-d0ee4e94ac02-1768727502292401452-16-0.1" type="actor-car-4175390300716139454" depart="120.00" departLane="0" departPos="62.36" departSpeed="max" arrivalLane="1" arrivalPos="71.78">
        <route edges="gneE61 gneE62 gneE69"/>
    </vehicle>
    <vehicle id="-flow-random-route-7855e92b-7b40-4ebe-96a4-60e5725c0e3e-1768727502292401452-18-0.1" type="actor-car-4175390300716139454" depart="120.00" departLane="0" departPos="13.06" departSpeed="max" arrivalLane="1" arrivalPos="20.19">
        <route edges="edge-south-SE edge-east-EN edge-north-NW edge-west-WS gneE60 gneE60.110 gneE61 gneE62 gneE69 gneE71"/>
    </vehicle>
    <vehicle id="-flow-random-route-7c25365e-83a8-49c8-a623-4a3e15aa5f8a-1768727502292401452-14-0.1" type="actor-car-4175390300716139454" depart="120.00" departLane="0" departPos="73.53" departSpeed="max" arrivalLane="0" arrivalPos="12.51">
        <route edges="gneE71 edge-west-WS"/>
    </vehicle>
    <vehicle id="-flow-random-route-8c184762-4dd0-42ff-a26d-d8b9ca587d57-1768727502292401452-19-0.1" type="actor-car-4175390300716139454" depart="120.00" departLane="1" departPos="131.86" departSpeed="max" arrivalLane="0" arrivalPos="24.29">
        <route edges="gneE69 gneE71 edge-west-WS edge-south-SE edge-east-EN edge-north-NW"/>
    </vehicle>
    <vehicle id="-flow-random-route-8dded405-d318-4965-92cc-866ff64e0d12-1768727502292401452-2-0.1" type="actor-car-4175390300716139454" depart="120.00" departLane="0" departPos="1.17" departSpeed="max" arrivalLane="0" arrivalPos="16.29">
        <route edges="gneE61 gneE62 gneE78 gneE81 gneE60.110 gneE61 gneE62 gneE69 gneE71 edge-west-WS"/>
    </vehicle>
    <vehicle id="-flow-random-route-a20c05c6-767d-4d04-b113-9251a5a87c83-1768727502292401452-11-0.1" type="actor-car-4175390300716139454" depart="120.00" departLane="1" departPos="13.59" departSpeed="max" arrivalLane="0" arrivalPos="46.89">
        <route edges="edge-east-EN edge-north-NW edge-west-WS"/>
    </vehicle>
    <vehicle id="-flow-random-route-b90e2724-34c5-46f7-aec6-082b58b18481-1768727502292401452-10-0.1" type="actor-car-4175390300716139454" depart="120.00" departLane="1" departPos="35.74" departSpeed="max" arrivalLane="1" arrivalPos="63.88">
        <route edges="edge-north-NW edge-west-WS"/>
    </vehicle>
    <vehicle id="-flow-random-route-b97dccb3-e6f9-4cf2-b2a7-5ae2a39e4008-1768727502292401452-4-0.1" type="actor-car-4175390300716139454" depart="120.00" departLane="1" departPos="12.36" departSpeed="max" arrivalLane="1" arrivalPos="32.63">
        <route edges="gneE71 edge-west-WS gneE60 gneE60.110 gneE61 gneE62 gneE78 gneE78.64 gneE80 edge-east-EN"/>
    </vehicle>
    <vehicle id="-flow-random-route-bc5f15a8-50fc-40ac-ba0d-378c12d0d0dc-1768727502292401452-28-0.1" type="actor-car-4175390300716139454" depart="120.00" departLane="0" departPos="3.31" departSpeed="max" arrivalLane="0" arrivalPos="70.01">
        <route edges="gneE69 gneE71 edge-west-WS"/>
    </vehicle>
    <vehicle id="-flow-random-route-cec23ff9-1149-472d-9ede-0aa272268a97-1768727502292401452-0-0.1" type="actor-car-4175390300716139454" depart="120.00" departLane="0" departPos="63.78" departSpeed="max" arrivalLane="0" arrivalPos="39.79">
        <route edges="gneE71 edge-west-WS edge-south-SE edge-east-EN edge-north-NW edge-west-WS gneE60 gneE60.110 gneE61 gneE62"/>
    </vehicle>
    <vehicle id="-flow-random-route-e6c8f9de-ae62-46a4-88f6-27db1f0c213f-1768727502292401452-5-0.1" type="actor-car-4175390300716139454" depart="120.00" departLane="0" departPos="66.09" departSpeed="max" arrivalLane="0" arrivalPos="37.10">
        <route edges="edge-west-WS gneE60 gneE60.110"/>
    </vehicle>
    <vehicle id="-flow-random-route-ed26f1f0-5888-4b38-8431-aa66dbe37eeb-1768727502292401452-15-0.1" type="actor-car-4175390300716139454" depart="120.00" departLane="0" departPos="30.38" departSpeed="max" arrivalLane="0" arrivalPos="43.00">
        <route edges="gneE62 gneE78 gneE78.64 gneE80 edge-east-EN edge-north-NW"/>
    </vehicle>
    <vehicle id="-flow-random-route-ed388a23-8c89-483d-aafb-cb292b361638-1768727502292401452-7-0.1" type="actor-car-4175390300716139454" depart="120.00" departLane="1" departPos="94.83" departSpeed="max" arrivalLane="1" arrivalPos="14.46">
        <route edges="gneE78.64 gneE80 edge-east-EN edge-north-NW edge-west-WS edge-south-SE"/>
    </vehicle>
    <vehicle id="-flow-random-route-ee493787-e382-4664-913f-acdcf605a970-1768727502292401452-3-0.1" type="actor-car-4175390300716139454" depart="120.00" departLane="0" departPos="28.40" departSpeed="max" arrivalLane="1" arrivalPos="28.54">
        <route edges="gneE78 gneE78.64 gneE80 edge-east-EN edge-north-NW edge-west-WS"/>
    </vehicle>
    <vehicle id="-flow-random-route-f2a14b6d-ea0b-41a7-b678-2725bb3d8ae6-1768727502292401452-9-0.1" type="actor-car-4175390300716139454" depart="120.00" departLane="1" departPos="93.57" departSpeed="max" arrivalLane="0" arrivalPos="3.26">
        <route edges="gneE61 gneE62 gneE78 gneE81 gneE60.110 gneE61 gneE62 gneE69 gneE71 edge-west-WS"/>
    </vehicle>
    <vehicle id="-flow-random-route-fed02930-80ba-47e3-adf1-a4a285ca7553-1768727502292401452-26-0.1" type="actor-car-4175390300716139454" depart="120.00" departLane="1" departPos="14.91" departSpeed="max" arrivalLane="1" arrivalPos="77.33">
        <route edges="edge-west-WS edge-south-SE edge-east-EN edge-north-NW edge-west-WS edge-south-SE edge-east-EN edge-north-NW edge-west-WS gneE60"/>
    </vehicle>
    <vehicle id="-flow-random-route-0b511d4f-b559-49dd-a9ee-0c0eec93ae2f-1768727502292401452-22-0.2" type="actor-car-4175390300716139454" depart="240.00" departLane="1" departPos="49.46" departSpeed="max" arrivalLane="0" arrivalPos="11.60">
        <route edges="gneE61 gneE62 gneE78 gneE78.64 gneE80 edge-east-EN edge-north-NW edge-west-WS gneE60 gneE60.110"/>
    </vehicle>
    <vehicle id="-flow-random-route-26f5321a-f7a0-4eb2-9280-789389f54914-1768727502292401452-17-0.2" type="actor-car-4175390300716139454" depart="240.00" departLane="0" departPos="101.18" departSpeed="max" arrivalLane="1" arrivalPos="3.53">
        <route edges="gneE78.64 gneE80 edge-east-EN edge-north-NW edge-west-WS gneE60 gneE60.110 gneE61 gneE62 gneE78"/>
    </vehicle>
    <vehicle id="-flow-random-route-27a46573-8579-4f48-b6eb-e67740723c2b-1768727502292401452-6-0.2" type="actor-car-4175390300716139454" depart="240.00" departLane="0" departPos="3.27" departSpeed="max" arrivalLane="0" arrivalPos="41.39">
        <route edges="gneE80 edge-east-EN edge-north-NW edge-west-WS gneE60 gneE60.110 gneE61 gneE62 gneE69 gneE71"/>
    </vehicle>
    <vehicle id="-flow-random-route-37a48c05-cade-4e67-ae0d-849096d69efe-1768727502292401452-21-0.2" type="actor-car-4175390300716139454" depart="240.00" departLane="0" departPos="52.41" departSpeed="max" arrivalLane="1" arrivalPos="40.72">
        <route edges="edge-west-WS gneE60 gneE60.110"/>
    </vehicle>
    <vehicle id="-flow-random-route-3af117b8-b45e-4be9-83ef-e2b391c9d886-1768727502292401452-13-0.2" type="actor-car-4175390300716139454" depart="240.00" departLane="0" departPos="55.69" departSpeed="max" arrivalLane="0" arrivalPos="90.96">
        <route edges="gneE60 gneE60.110 gneE61"/>
    </vehicle>
    <vehicle id="-flow-random-route-43292cad-f66a-4e88-8b56-29908e45492b-1768727502292401452-23-0.2" type="actor-car-4175390300716139454" depart="240.00" departLane="0" departPos="22.02" departSpeed="max" arrivalLane="1" arrivalPos="8.41">
        <route edges="gneE78 gneE81 gneE60.110"/>
    </vehicle>
    <vehicle id="-flow-random-route-4658a54b-e2ef-4b0f-b898-1881d022073b-1768727502292401452-20-0.2" type="actor-car-4175390300716139454" depart="240.00" departLane="0" departPos="30.78" departSpeed="max" arrivalLane="0" arrivalPos="31.12">
        <route edges="gneE61 gneE62 gneE69 gneE71 edge-west-WS edge-south-SE"/>
    </vehicle>
    <vehicle id="-flow-random-route-494512e0-ad27-4418-a0b4-4f922534761b-1768727502292401452-12-0.2" type="actor-car-4175390300716139454" depart="240.00" departLane="1" departPos="82.06" departSpeed="max" arrivalLane="1" arrivalPos="33.00">
        <route edges="gneE69 gneE71 edge-west-WS edge-south-SE edge-east-EN edge-north-NW edge-west-WS gneE60 gneE60.110 gneE61"/>
    </vehicle>
    <vehicle id="-flow-random-route-50bcf1e5-7e5d-4e1e-a8f3-56247b3d84db-1768727502292401452-1-0.2" type="actor-car-4175390300716139454" depart="240.00" departLane="0" departPos="78.10" departSpeed="max" arrivalLane="0" arrivalPos="70.54">
        <route edges="gneE60 gneE60.110 gneE61 gneE62 gneE78 gneE81 gneE60.110 gneE61 gneE62 gneE69"/>
    </vehicle>
    <vehicle id="-flow-random-route-5654ed06-5d03-42ca-9644-e910cb9b4a36-1768727502292401452-8-0.2" type="actor-car-4175390300716139454" depart="240.00" departLane="1" departPos="3.56" departSpeed="max" arrivalLane="1" arrivalPos="60.25">
        <route edges="gneE80 edge-east-EN edge-north-NW edge-west-WS gneE60 gneE60.110 gneE61 gneE62 gneE78 gneE81"/>
    </vehicle>
    <vehicle id="-flow-random-route-5741d2b9-0142-48d5-a010-ffb59d46b452-1768727502292401452-24-0.2" type="actor-car-4175390300716139454" depart="240.00" departLane="0" departPos="30.31" departSpeed="max" arrivalLane="1" arrivalPos="12.71">
        <route edges="gneE78 gneE78.64 gneE80 edge-east-EN edge-north-NW edge-west-WS"/>
    </vehicle>
    <vehicle id="-flow-random-route-5f642652-5907-40ca-a474-5bc77b94c406-1768727502292401452-25-0.2" type="actor-car-4175390300716139454" depart="240.00" departLane="0" departPos="9.90" departSpeed="max" arrivalLane="1" arrivalPos="15.45">
        <route edges="gneE60.110 gneE61 gneE62 gneE78 gneE78.64 gneE80 edge-east-EN edge-north-NW edge-west-WS gneE60"/>
    </vehicle>
    <vehicle id="-flow-random-route-62ccbde6-09c0-4965-b4db-a4058125fab5-1768727502292401452-27-0.2" type="actor-car-4175390300716139454" depart="240.00" departLane="1" departPos="33.08" departSpeed="max" arrivalLane="1" arrivalPos="74.45">
        <route edges="edge-west-WS edge-south-SE edge-east-EN edge-north-NW edge-west-WS edge-south-SE edge-east-EN edge-north-NW edge-west-WS gneE60"/>
    </vehicle>
    <vehicle id="-flow-random-route-71284f64-8e77-472b-aff7-d7c6c642b44f-1768727502292401452-29-0.2" type="actor-car-4175390300716139454" depart="240.00" departLane="1" departPos="42.04" departSpeed="max" arrivalLane="1" arrivalPos="26.39">
        <route edges="edge-north-NW edge-west-WS gneE60"/>
    </vehicle>
    <vehicle id="-flow-random-route-75754f5b-ff3b-435b-b47c-d0ee4e94ac02-1768727502292401452-16-0.2" type="actor-car-4175390300716139454" depart="240.00" departLane="0" departPos="62.36" departSpeed="max" arrivalLane="1" arrivalPos="71.78">
        <route edges="gneE61 gneE62 gneE69"/>
    </vehicle>
    <vehicle id="-flow-random-route-7855e92b-7b40-4ebe-96a4-60e5725c0e3e-1768727502292401452-18-0.2" type="actor-car-4175390300716139454" depart="240.00" departLane="0" departPos="13.06" departSpeed="max" arrivalLane="1" arrivalPos="20.19">
        <route edges="edge-south-SE edge-east-EN edge-north-NW edge-west-WS gneE60 gneE60.110 gneE61 gneE62 gneE69 gneE71"/>
    </vehicle>
    <vehicle id="-flow-random-route-7c25365e-83a8-49c8-a623-4a3e15aa5f8a-1768727502292401452-14-0.2" type="actor-car-4175390300716139454" depart="240.00" departLane="0" departPos="73.53" departSpeed="max" arrivalLane="0" arrivalPos="12.51">
        <route edges="gneE71 edge-west-WS"/>
    </vehicle>
    <vehicle id="-flow-random-route-8c184762-4dd0-42ff-a26d-d8b9ca587d57-1768727502292401452-19-0.2" type="actor-car-4175390300716139454" depart="240.00" departLane="1" departPos="131.86" departSpeed="max" arrivalLane="0" arrivalPos="24.29">
        <route edges="gneE69 gneE71 edge-west-WS edge-south-SE edge-east-EN edge-north-NW"/>
    </vehicle>
    <vehicle id="-flow-random-route-8dded405-d318-4965-92cc-866ff64e0d12-1768727502292401452-2-0.2" type="actor-car-4175390300716139454" depart="240.00" departLane="0" departPos="1.17" departSpeed="max" arrivalLane="0" arrivalPos="16.29">
        <route edges="gneE61 gneE62 gneE78 gneE81 gneE60.110 gneE61 gneE62 gneE69 gneE71 edge-west-WS"/>
    </vehicle>
    <vehicle id="-flow-random-route-a20c05c6-767d-4d04-b113-9251a5a87c83-1768727502292401452-11-0.2" type="actor-car-4175390300716139454" depart="240.00" departLane="1" departPos="13.59" departSpeed="max" arrivalLane="0" arrivalPos="46.89">
        <route edges="edge-east-EN edge-north-NW edge-west-WS"/>
    </vehicle>
    <vehicle id="-flow-random-route-b90e2724-34c5-46f7-aec6-082b58b18481-1768727502292401452-10-0.2" type="actor-car-4175390300716139454" depart="240.00" departLane="1" departPos="35.74" departSpeed="max" arrivalLane="1" arrivalPos="63.88">
        <route edges="edge-north-NW edge-west-WS"/>
    </vehicle>
    <vehicle id="-flow-random-route-b97dccb3-e6f9-4cf2-b2a7-5ae2a39e4008-1768727502292401452-4-0.2" type="actor-car-4175390300716139454" depart="240.00" departLane="1" departPos="12.36" departSpeed="max" arrivalLane="1" arrivalPos="32.63">
        <route edges="gneE71 edge-west-WS gneE60 gneE60.110 gneE61 gneE62 gneE78 gneE78.64 gneE80 edge-east-EN"/>
    </vehicle>