<?xml version="1.0" encoding="UTF-8"?>

<!-- generated on Thu Nov 12 06:57:48 2020 by Eclipse SUMO duarouter Version 1.6.0
<configuration xmlns:xsi="http://www.w3.org/2001/XMLSchema-instance" xsi:noNamespaceSchemaLocation="http://sumo.dlr.de/xsd/duarouterConfiguration.xsd">

    <input>
        <net-file value="dataset/intersection_4lane_sv_right/map.net.xml"/>
        <route-files value="/tmp/tmpnulkgiij/trips.trips.xml"/>
    </input>

    <output>
        <output-file value="dataset/intersection_4lane_sv_right/traffic/all.rou.xml"/>
        <alternatives-output value="dataset/intersection_4lane_sv_right/traffic/all.rou.alt.xml"/>
    </output>

    <processing>
        <unsorted-input value="true"/>
        <repair value="true"/>
    </processing>

    <report>
        <error-log value="/tmp/smarts/_duarouter_routing/traffic/all.log"/>
        <no-step-log value="true"/>
    </report>

    <random_number>
        <seed value="42"/>
    </random_number>

</configuration>
-->

<routes xmlns:xsi="http://www.w3.org/2001/XMLSchema-instance" xsi:noNamespaceSchemaLocation="http://sumo.dlr.de/xsd/routes_file.xsd">
    <vType id="actor-car-7351114105661182597" minGap="2.50" speedFactor="normc(1.00,0.20,0.20,2.00)" vClass="passenger" impatience="1.00" lcCooperative="0.25" lcImpatience="1" jmDriveAfterYellowTime="1.0" jmDriveAfterRedTime="1.5" accel="2.6" decel="4.5" sigma="0.5"/>
    <vehicle id="car-flow-route-edge-east-EW_0_random-edge-north-SN_0_random-3640966858484929542---136825415048266267--11-0.0" type="actor-car-7351114105661182597" depart="0.00" departLane="0" departPos="random" departSpeed="max" arrivalLane="0" arrivalPos="random">
        <route edges="edge-east-EW edge-north-SN"/>
    </vehicle>
    <vType id="actor-car-791131883028625314" minGap="2.50" speedFactor="normc(0.80,0.20,0.20,2.00)" vClass="passenger" impatience="0.50" lcCooperative="0.5" lcImpatience="0" jmDriveAfterYellowTime="1.0" accel="2.6" decel="4.5" sigma="0.5"/>
    <vehicle id="car-flow-route-edge-east-EW_0_random-edge-north-SN_0_random-3640966858484929542---136825415048266267--11-1.0" type="actor-car-791131883028625314" depart="0.00" departLane="0" departPos="random" departSpeed="max" arrivalLane="0" arrivalPos="random">
        <route edges="edge-east-EW edge-north-SN"/>
    </vehicle>
    <vehicle id="car-flow-route-edge-east-EW_0_random-edge-south-NS_0_random-8634448622744712771---136825415048266267--7-0.0" type="actor-car-7351114105661182597" depart="0.00" departLane="0" departPos="random" departSpeed="max" arrivalLane="0" arrivalPos="random">
        <route edges="edge-east-EW edge-south-NS"/>
    </vehicle>
    <vehicle id="car-flow-route-edge-east-EW_0_random-edge-south-NS_0_random-8634448622744712771---136825415048266267--7-1.0" type="actor-car-791131883028625314" depart="0.00" departLane="0" departPos="random" departSpeed="max" arrivalLane="0" arrivalPos="random">
        <route edges="edge-east-EW edge-south-NS"/>
    </vehicle>
    <vehicle id="car-flow-route-edge-east-EW_0_random-edge-west-EW_0_random-5362531372274118879---136825415048266267--3-0.0" type="actor-car-7351114105661182597" depart="0.00" departLane="0" departPos="random" departSpeed="max" arrivalLane="0" arrivalPos="random">
        <route edges="edge-east-EW edge-west-EW"/>
    </vehicle>
    <vehicle id="car-flow-route-edge-east-EW_0_random-edge-west-EW_0_random-5362531372274118879---136825415048266267--3-1.0" type="actor-car-791131883028625314" depart="0.00" departLane="0" departPos="random" departSpeed="max" arrivalLane="0" arrivalPos="random">
        <route edges="edge-east-EW edge-west-EW"/>
    </vehicle>
    <vehicle id="car-flow-route-edge-north-NS_0_random-edge-east-WE_0_random-7006043361131516534---136825415048266267--6-0.0" type="actor-car-7351114105661182597" depart="0.00" departLane="0" departPos="random" departSpeed="max" arrivalLane="0" arrivalPos="random">
        <route edges="edge-north-NS edge-east-WE"/>
    </vehicle>
    <vehicle id="car-flow-route-edge-north-NS_0_random-edge-east-WE_0_random-7006043361131516534---136825415048266267--6-1.0" type="actor-car-791131883028625314" depart="0.00" departLane="0" departPos="random" departSpeed="max" arrivalLane="0" arrivalPos="random">
        <route edges="edge-north-NS edge-east-WE"/>
    </vehicle>
    <vehicle id="car-flow-route-edge-north-NS_0_random-edge-south-NS_0_random-4926464870430220734---136825415048266267--0-0.0" type="actor-car-7351114105661182597" depart="0.00" departLane="0" departPos="random" departSpeed="max" arrivalLane="0" arrivalPos="random">
        <route edges="edge-north-NS edge-south-NS"/>
    </vehicle>
    <vehicle id="car-flow-route-edge-north-NS_0_random-edge-south-NS_0_random-4926464870430220734---136825415048266267--0-1.0" type="actor-car-791131883028625314" depart="0.00" departLane="0" departPos="random" departSpeed="max" arrivalLane="0" arrivalPos="random">
        <route edges="edge-north-NS edge-south-NS"/>
    </vehicle>
    <vehicle id="car-flow-route-edge-north-NS_0_random-edge-west-EW_0_random--5938189063143592670---136825415048266267--10-0.0" type="actor-car-7351114105661182597" depart="0.00" departLane="0" departPos="random" departSpeed="max" arrivalLane="0" arrivalPos="random">
        <route edges="edge-north-NS edge-west-EW"/>
    </vehicle>
    <vehicle id="car-flow-route-edge-north-NS_0_random-edge-west-EW_0_random--5938189063143592670---136825415048266267--10-1.0" type="actor-car-791131883028625314" depart="0.00" departLane="0" departPos="random" departSpeed="max" arrivalLane="0" arrivalPos="random">
        <route edges="edge-north-NS edge-west-EW"/>
    </vehicle>
    <vehicle id="car-flow-route-edge-south-SN_0_random-edge-east-WE_0_random--5597412790287236878---136825415048266267--8-0.0" type="actor-car-7351114105661182597" depart="0.00" departLane="0" departPos="random" departSpeed="max" arrivalLane="0" arrivalPos="random">
        <route edges="edge-south-SN edge-east-WE"/>
    </vehicle>
    <vehicle id="car-flow-route-edge-south-SN_0_random-edge-east-WE_0_random--5597412790287236878---136825415048266267--8-1.0" type="actor-car-791131883028625314" depart="0.00" departLane="0" departPos="random" departSpeed="max" arrivalLane="0" arrivalPos="random">
        <route edges="edge-south-SN edge-east-WE"/>
    </vehicle>
    <vehicle id="car-flow-route-edge-south-SN_0_random-edge-north-SN_0_random--2899681348183971841---136825415048266267--1-0.0" type="actor-car-7351114105661182597" depart="0.00" departLane="0" departPos="random" departSpeed="max" arrivalLane="0" arrivalPos="random">
        <route edges="edge-south-SN edge-north-SN"/>
    </vehicle>
    <vehicle id="car-flow-route-edge-south-SN_0_random-edge-north-SN_0_random--2899681348183971841---136825415048266267--1-1.0" type="actor-car-791131883028625314" depart="0.00" departLane="0" departPos="random" departSpeed="max" arrivalLane="0" arrivalPos="random">
        <route edges="edge-south-SN edge-north-SN"/>
    </vehicle>
    <vehicle id="car-flow-route-edge-south-SN_0_random-edge-west-EW_0_random--6180938519914335450---136825415048266267--4-0.0" type="actor-car-7351114105661182597" depart="0.00" departLane="0" departPos="random" departSpeed="max" arrivalLane="0" arrivalPos="random">
        <route edges="edge-south-SN edge-west-EW"/>
    </vehicle>
    <vehicle id="car-flow-route-edge-south-SN_0_random-edge-west-EW_0_random--6180938519914335450---136825415048266267--4-1.0" type="actor-car-791131883028625314" depart="0.00" departLane="0" departPos="random" departSpeed="max" arrivalLane="0" arrivalPos="random">
        <route edges="edge-south-SN edge-west-EW"/>
    </vehicle>
    <vehicle id="car-flow-route-edge-west-WE_0_random-edge-east-WE_0_random-7398054084155041911---136825415048266267--2-0.0" type="actor-car-7351114105661182597" depart="0.00" departLane="0" departPos="random" departSpeed="max" arrivalLane="0" arrivalPos="random">
        <route edges="edge-west-WE edge-east-WE"/>
    </vehicle>
    <vehicle id="car-flow-route-edge-west-WE_0_random-edge-east-WE_0_random-7398054084155041911---136825415048266267--2-1.0" type="actor-car-791131883028625314" depart="0.00" departLane="0" departPos="random" departSpeed="max" arrivalLane="0" arrivalPos="random">
        <route edges="edge-west-WE edge-east-WE"/>
    </vehicle>
    <vehicle id="car-flow-route-edge-west-WE_0_random-edge-north-SN_0_random-6887206945765618586---136825415048266267--5-0.0" type="actor-car-7351114105661182597" depart="0.00" departLane="0" departPos="random" departSpeed="max" arrivalLane="0" arrivalPos="random">
        <route edges="edge-west-WE edge-north-SN"/>
    </vehicle>
    <vehicle id="car-flow-route-edge-west-WE_0_random-edge-north-SN_0_random-6887206945765618586---136825415048266267--5-1.0" type="actor-car-791131883028625314" depart="0.00" departLane="0" departPos="random" departSpeed="max" arrivalLane="0" arrivalPos="random">
        <route edges="edge-west-WE edge-north-SN"/>
    </vehicle>
    <vehicle id="car-flow-route-edge-west-WE_0_random-edge-south-NS_0_random-5382163648912563839---136825415048266267--9-0.0" type="actor-car-7351114105661182597" depart="0.00" departLane="0" departPos="random" departSpeed="max" arrivalLane="0" arrivalPos="random">
        <route edges="edge-west-WE edge-south-NS"/>
    </vehicle>
    <vehicle id="car-flow-route-edge-west-WE_0_random-edge-south-NS_0_random-5382163648912563839---136825415048266267--9-1.0" type="actor-car-791131883028625314" depart="0.00" departLane="0" departPos="random" departSpeed="max" arrivalLane="0" arrivalPos="random">
        <route edges="edge-west-WE edge-south-NS"/>
    </vehicle>
</routes>
