<?xml version="1.0" encoding="UTF-8"?>

<!-- generated on Fri Sep 18 07:11:21 2020 by Eclipse SUMO duarouter Version 1.6.0
<configuration xmlns:xsi="http://www.w3.org/2001/XMLSchema-instance" xsi:noNamespaceSchemaLocation="http://sumo.dlr.de/xsd/duarouterConfiguration.xsd">

    <input>
        <net-file value="dataset_public/merge_loop/merge_a/map.net.xml"/>
        <route-files value="/tmp/tmpsztrmd1i/trips.trips.xml"/>
    </input>

    <output>
        <output-file value="dataset_public/merge_loop/merge_a/traffic/30_patient_car.rou.xml"/>
        <alternatives-output value="dataset_public/merge_loop/merge_a/traffic/30_patient_car.rou.alt.xml"/>
    </output>

    <processing>
        <unsorted-input value="true"/>
        <repair value="true"/>
    </processing>

    <report>
        <error-log value="/tmp/smarts/_duarouter_routing/traffic/30_patient_car.log"/>
        <no-step-log value="true"/>
    </report>

    <random_number>
        <seed value="42"/>
    </random_number>

</configuration>
-->

<routes xmlns:xsi="http://www.w3.org/2001/XMLSchema-instance" xsi:noNamespaceSchemaLocation="http://sumo.dlr.de/xsd/routes_file.xsd">
    <vType id="actor-car-7258006950093463382" minGap="2.50" speedFactor="normc(0.50,0.20,0.20,2.00)" vClass="passenger" impatience="0.50" lcCooperative="0.5" lcImpatience="0" jmDriveAfterYellowTime="1.0" accel="2.6" decel="4.5" sigma="0.5"/>
    <vehicle id="-flow-random-route-027303b0-6bf2-4ab1-b25d-d4d882395b74-8204641149741729210-16-0.0" type="actor-car-7258006950093463382" depart="0.00" departLane="0" departPos="110.65" departSpeed="max" arrivalLane="1" arrivalPos="10.24">
        <route edges="gneE8 gneE9 gneE2"/>
    </vehicle>
    <vehicle id="-flow-random-route-0df75451-44ea-4927-b967-a7bcc89ea72b-8204641149741729210-10-0.0" type="actor-car-7258006950093463382" depart="0.00" departLane="0" departPos="101.00" departSpeed="max" arrivalLane="1" arrivalPos="35.45">
        <route edges="gneE16 gneE7.117 gneE10 gneE3 gneE1"/>
    </vehicle>
    <vehicle id="-flow-random-route-12d18fe7-e8a2-4e94-b269-9119145c37ad-8204641149741729210-6-0.0" type="actor-car-7258006950093463382" depart="0.00" departLane="1" departPos="8.63" departSpeed="max" arrivalLane="0" arrivalPos="29.86">
        <route edges="gneE1 gneE1.12 gneE5 gneE7 gneE7.117 gneE7.141 gneE8 gneE9 gneE2 gneE1"/>
    </vehicle>
    <vehicle id="-flow-random-route-2d0f2f84-d7c5-4199-bc2f-1986df1335d8-8204641149741729210-21-0.0" type="actor-car-7258006950093463382" depart="0.00" departLane="0" departPos="46.08" departSpeed="max" arrivalLane="1" arrivalPos="9.68">
        <route edges="gneE10 gneE3 gneE1"/>
    </vehicle>
    <vehicle id="-flow-random-route-2d646a81-cdec-43c3-8e2a-43b6e5b65e6a-8204641149741729210-24-0.0" type="actor-car-7258006950093463382" depart="0.00" departLane="0" departPos="152.32" departSpeed="max" arrivalLane="1" arrivalPos="31.01">
        <route edges="gneE8 gneE9 gneE2 gneE1 gneE1.12 gneE5 gneE7 gneE7.117 gneE7.141 gneE8"/>
    </vehicle>
    <vehicle id="-flow-random-route-376bc81d-d85d-4ef3-9f68-c572f8204550-8204641149741729210-15-0.0" type="actor-car-7258006950093463382" depart="0.00" departLane="1" departPos="101.44" departSpeed="max" arrivalLane="0" arrivalPos="32.83">
        <route edges="gneE1.12 gneE5 gneE7 gneE7.117 gneE7.141 gneE8 gneE9 gneE2 gneE1 gneE16"/>
    </vehicle>
    <vehicle id="-flow-random-route-3ab26730-f13c-4fd8-91f7-8fe25db020d9-8204641149741729210-7-0.0" type="actor-car-7258006950093463382" depart="0.00" departLane="0" departPos="127.37" departSpeed="max" arrivalLane="0" arrivalPos="60.15">
        <route edges="gneE16 gneE7.117 gneE10 gneE3 gneE1 gneE16 gneE7.117 gneE7.141 gneE8 gneE9"/>
    </vehicle>
    <vehicle id="-flow-random-route-3b80a85c-3c4f-45e6-a7ab-f846cf876a0b-8204641149741729210-28-0.0" type="actor-car-7258006950093463382" depart="0.00" departLane="0" departPos="63.76" departSpeed="max" arrivalLane="1" arrivalPos="49.06">
        <route edges="gneE16 gneE7.117 gneE7.141 gneE8 gneE9 gneE2 gneE1 gneE1.12 gneE5 gneE7"/>
    </vehicle>
    <vehicle id="-flow-random-route-3d386b4e-9bb4-4872-a721-d5c221c04c28-8204641149741729210-25-0.0" type="actor-car-7258006950093463382" depart="0.00" departLane="0" departPos="3.52" departSpeed="max" arrivalLane="0" arrivalPos="170.89">
        <route edges="gneE7.117 gneE7.141 gneE8"/>
    </vehicle>
    <vehicle id="-flow-random-route-42cffc03-eb68-45cd-b966-c7b82f9c469b-8204641149741729210-9-0.0" type="actor-car-7258006950093463382" depart="0.00" departLane="0" departPos="32.02" departSpeed="max" arrivalLane="0" arrivalPos="63.63">
        <route edges="gneE2 gneE1 gneE16 gneE7.117 gneE10"/>
    </vehicle>
    <vehicle id="-flow-random-route-4419b8fd-f0f7-4dd5-a528-9ba3f7ef4ad2-8204641149741729210-13-0.0" type="actor-car-7258006950093463382" depart="0.00" departLane="0" departPos="142.73" departSpeed="max" arrivalLane="1" arrivalPos="25.42">
        <route edges="gneE8 gneE9 gneE2"/>
    </vehicle>
    <vehicle id="-flow-random-route-46638b33-fd0c-417a-9a14-1c2285a3e654-8204641149741729210-0-0.0" type="actor-car-7258006950093463382" depart="0.00" departLane="1" departPos="41.46" departSpeed="max" arrivalLane="0" arrivalPos="12.18">
        <route edges="gneE5 gneE7 gneE7.117 gneE10 gneE3"/>
    </vehicle>
    <vehicle id="-flow-random-route-4b8ce8e8-d519-4db8-b38c-c023d245a922-8204641149741729210-4-0.0" type="actor-car-7258006950093463382" depart="0.00" departLane="1" departPos="32.90" departSpeed="max" arrivalLane="1" arrivalPos="94.52">
        <route edges="gneE1.12 gneE5 gneE7 gneE7.117 gneE10"/>
    </vehicle>
    <vehicle id="-flow-random-route-50292b62-9fbf-4f97-8ade-e7e8636384fd-8204641149741729210-17-0.0" type="actor-car-7258006950093463382" depart="0.00" departLane="0" departPos="10.39" departSpeed="max" arrivalLane="0" arrivalPos="19.22">
        <route edges="gneE3 gneE1 gneE1.12 gneE5 gneE7 gneE7.117 gneE10 gneE3 gneE1 gneE16"/>
    </vehicle>
    <vehicle id="-flow-random-route-52ea6f38-c10d-4a0b-9721-8848c1b5d8c6-8204641149741729210-19-0.0" type="actor-car-7258006950093463382" depart="0.00" departLane="1" departPos="139.88" departSpeed="max" arrivalLane="0" arrivalPos="27.74">
        <route edges="gneE7.117 gneE10 gneE3"/>
    </vehicle>
    <vehicle id="-flow-random-route-69827a26-ef8c-4509-8b31-d0eec59f48f6-8204641149741729210-5-0.0" type="actor-car-7258006950093463382" depart="0.00" departLane="1" departPos="51.03" departSpeed="max" arrivalLane="1" arrivalPos="9.22">
        <route edges="gneE9 gneE2 gneE1"/>
    </vehicle>
    <vehicle id="-flow-random-route-77ff6896-0357-47e5-8d15-bbcaa5073f26-8204641149741729210-3-0.0" type="actor-car-7258006950093463382" depart="0.00" departLane="1" departPos="86.24" departSpeed="max" arrivalLane="0" arrivalPos="123.11">
        <route edges="gneE1.12 gneE5 gneE7 gneE7.117 gneE7.141 gneE8 gneE9 gneE2 gneE1 gneE16"/>
    </vehicle>
    <vehicle id="-flow-random-route-8e7b7a36-a867-4d02-aa54-51568aad21eb-8204641149741729210-1-0.0" type="actor-car-7258006950093463382" depart="0.00" departLane="0" departPos="54.68" departSpeed="max" arrivalLane="0" arrivalPos="45.78">
        <route edges="gneE7.141 gneE8 gneE9 gneE2 gneE1 gneE1.12 gneE5 gneE7 gneE7.117 gneE10"/>
    </vehicle>
    <vehicle id="-flow-random-route-b1cf3258-cfcf-4685-bb13-37c75d025121-8204641149741729210-14-0.0" type="actor-car-7258006950093463382" depart="0.00" departLane="0" departPos="0.98" departSpeed="max" arrivalLane="0" arrivalPos="31.10">
        <route edges="gneE5 gneE7 gneE7.117 gneE7.141 gneE8 gneE9 gneE2 gneE1 gneE1.12 gneE5"/>
    </vehicle>
    <vehicle id="-flow-random-route-b8edb737-4821-4405-8b83-86d7f8668944-8204641149741729210-23-0.0" type="actor-car-7258006950093463382" depart="0.00" departLane="1" departPos="75.70" departSpeed="max" arrivalLane="1" arrivalPos="20.39">
        <route edges="gneE9 gneE2 gneE1"/>
    </vehicle>
    <vehicle id="-flow-random-route-c3b9f1cb-4550-487c-a7ae-fa3e2b4f4367-8204641149741729210-2-0.0" type="actor-car-7258006950093463382" depart="0.00" departLane="0" departPos="80.76" departSpeed="max" arrivalLane="1" arrivalPos="8.62">
        <route edges="gneE9 gneE2 gneE1 gneE1.12 gneE5 gneE7 gneE7.117 gneE7.141 gneE8 gneE9"/>
    </vehicle>
    <vehicle id="-flow-random-route-cc1442af-8940-43a4-ad30-70611ea49cc9-8204641149741729210-18-0.0" type="actor-car-7258006950093463382" depart="0.00" departLane="0" departPos="63.04" departSpeed="max" arrivalLane="0" arrivalPos="19.94">
        <route edges="gneE7.141 gneE8 gneE9 gneE2 gneE1 gneE1.12 gneE5 gneE7 gneE7.117 gneE10"/>
    </vehicle>
    <vehicle id="-flow-random-route-ce10fbb4-40ca-4f6a-beac-0e17a21a86ba-8204641149741729210-11-0.0" type="actor-car-7258006950093463382" depart="0.00" departLane="0" departPos="52.27" departSpeed="max" arrivalLane="1" arrivalPos="28.92">
        <route edges="gneE5 gneE7 gneE7.117 gneE10 gneE3"/>
    </vehicle>
    <vehicle id="-flow-random-route-e54e632f-5a40-49d5-8b32-de2f0a59b11b-8204641149741729210-8-0.0" type="actor-car-7258006950093463382" depart="0.00" departLane="0" departPos="25.80" departSpeed="max" arrivalLane="0" arrivalPos="131.61">
        <route edges="gneE5 gneE7 gneE7.117 gneE7.141 gneE8 gneE9 gneE2 gneE1 gneE1.12 gneE5"/>
    </vehicle>
    <vehicle id="-flow-random-route-e73b1133-b704-4f32-86bf-d580b9eec624-8204641149741729210-26-0.0" type="actor-car-7258006950093463382" depart="0.00" departLane="0" departPos="28.73" departSpeed="max" arrivalLane="1" arrivalPos="79.57">
        <route edges="gneE16 gneE7.117 gneE10"/>
    </vehicle>
    <vehicle id="-flow-random-route-eaca0c62-2b63-4499-b894-f9dbbd92bce2-8204641149741729210-22-0.0" type="actor-car-7258006950093463382" depart="0.00" departLane="1" departPos="78.44" departSpeed="max" arrivalLane="0" arrivalPos="6.23">
        <route edges="gneE5 gneE7 gneE7.117 gneE7.141 gneE8 gneE9 gneE2 gneE1 gneE1.12 gneE5"/>
    </vehicle>
    <vehicle id="-flow-random-route-ec0f8a5b-7bcc-4601-8759-e48df497199c-8204641149741729210-12-0.0" type="actor-car-7258006950093463382" depart="0.00" departLane="1" departPos="10.60" departSpeed="max" arrivalLane="1" arrivalPos="51.84">
        <route edges="gneE7.141 gneE8 gneE9 gneE2 gneE1 gneE1.12 gneE5 gneE7 gneE7.117 gneE10"/>
    </vehicle>
    <vehicle id="-flow-random-route-ed3bac9b-13fa-46a2-af52-ebc9c42a5dbf-8204641149741729210-20-0.0" type="actor-car-7258006950093463382" depart="0.00" departLane="1" departPos="57.92" departSpeed="max" arrivalLane="1" arrivalPos="35.13">
        <route edges="gneE7.117 gneE10 gneE3 gneE1 gneE16 gneE7.117 gneE7.141 gneE8 gneE9 gneE2"/>
    </vehicle>
    <vehicle id="-flow-random-route-fa0aafea-9716-4064-ad80-4501601301e1-8204641149741729210-27-0.0" type="actor-car-7258006950093463382" depart="0.00" departLane="0" departPos="22.38" departSpeed="max" arrivalLane="0" arrivalPos="75.84">
        <route edges="gneE7 gneE7.117 gneE10 gneE3 gneE1 gneE16 gneE7.117 gneE7.141 gneE8 gneE9"/>
    </vehicle>
    <vehicle id="-flow-random-route-fd3c202c-3ccc-4b9c-a2cd-c516909654a7-8204641149741729210-29-0.0" type="actor-car-7258006950093463382" depart="0.00" departLane="0" departPos="44.91" departSpeed="max" arrivalLane="0" arrivalPos="71.29">
        <route edges="gneE2 gneE1 gneE16"/>
    </vehicle>
    <vehicle id="-flow-random-route-027303b0-6bf2-4ab1-b25d-d4d882395b74-8204641149741729210-16-0.1" type="actor-car-7258006950093463382" depart="120.00" departLane="0" departPos="110.65" departSpeed="max" arrivalLane="1" arrivalPos="10.24">
        <route edges="gneE8 gneE9 gneE2"/>
    </vehicle>
    <vehicle id="-flow-random-route-0df75451-44ea-4927-b967-a7bcc89ea72b-8204641149741729210-10-0.1" type="actor-car-7258006950093463382" depart="120.00" departLane="0" departPos="101.00" departSpeed="max" arrivalLane="1" arrivalPos="35.45">
        <route edges="gneE16 gneE7.117 gneE10 gneE3 gneE1"/>
    </vehicle>
    <vehicle id="-flow-random-route-12d18fe7-e8a2-4e94-b269-9119145c37ad-8204641149741729210-6-0.1" type="actor-car-7258006950093463382" depart="120.00" departLane="1" departPos="8.63" departSpeed="max" arrivalLane="0" arrivalPos="29.86">
        <route edges="gneE1 gneE1.12 gneE5 gneE7 gneE7.117 gneE7.141 gneE8 gneE9 gneE2 gneE1"/>
    </vehicle>
    <vehicle id="-flow-random-route-2d0f2f84-d7c5-4199-bc2f-1986df1335d8-8204641149741729210-21-0.1" type="actor-car-7258006950093463382" depart="120.00" departLane="0" departPos="46.08" departSpeed="max" arrivalLane="1" arrivalPos="9.68">
        <route edges="gneE10 gneE3 gneE1"/>
    </vehicle>
    <vehicle id="-flow-random-route-2d646a81-cdec-43c3-8e2a-43b6e5b65e6a-8204641149741729210-24-0.1" type="actor-car-7258006950093463382" depart="120.00" departLane="0" departPos="152.32" departSpeed="max" arrivalLane="1" arrivalPos="31.01">
        <route edges="gneE8 gneE9 gneE2 gneE1 gneE1.12 gneE5 gneE7 gneE7.117 gneE7.141 gneE8"/>
    </vehicle>
    <vehicle id="-flow-random-route-376bc81d-d85d-4ef3-9f68-c572f8204550-8204641149741729210-15-0.1" type="actor-car-7258006950093463382" depart="120.00" departLane="1" departPos="101.44" departSpeed="max" arrivalLane="0" arrivalPos="32.83">
        <route edges="gneE1.12 gneE5 gneE7 gneE7.117 gneE7.141 gneE8 gneE9 gneE2 gneE1 gneE16"/>
    </vehicle>
    <vehicle id="-flow-random-route-3ab26730-f13c-4fd8-91f7-8fe25db020d9-8204641149741729210-7-0.1" type="actor-car-7258006950093463382" depart="120.00" departLane="0" departPos="127.37" departSpeed="max" arrivalLane="0" arrivalPos="60.15">
        <route edges="gneE16 gneE7.117 gneE10 gneE3 gneE1 gneE16 gneE7.117 gneE7.141 gneE8 gneE9"/>
    </vehicle>
    <vehicle id="-flow-random-route-3b80a85c-3c4f-45e6-a7ab-f846cf876a0b-8204641149741729210-28-0.1" type="actor-car-7258006950093463382" depart="120.00" departLane="0" departPos="63.76" departSpeed="max" arrivalLane="1" arrivalPos="49.06">
        <route edges="gneE16 gneE7.117 gneE7.141 gneE8 gneE9 gneE2 gneE1 gneE1.12 gneE5 gneE7"/>
    </vehicle>
    <vehicle id="-flow-random-route-3d386b4e-9bb4-4872-a721-d5c221c04c28-8204641149741729210-25-0.1" type="actor-car-7258006950093463382" depart="120.00" departLane="0" departPos="3.52" departSpeed="max" arrivalLane="0" arrivalPos="170.89">
        <route edges="gneE7.117 gneE7.141 gneE8"/>
    </vehicle>
    <vehicle id="-flow-random-route-42cffc03-eb68-45cd-b966-c7b82f9c469b-8204641149741729210-9-0.1" type="actor-car-7258006950093463382" depart="120.00" departLane="0" departPos="32.02" departSpeed="max" arrivalLane="0" arrivalPos="63.63">
        <route edges="gneE2 gneE1 gneE16 gneE7.117 gneE10"/>
    </vehicle>
    <vehicle id="-flow-random-route-4419b8fd-f0f7-4dd5-a528-9ba3f7ef4ad2-8204641149741729210-13-0.1" type="actor-car-7258006950093463382" depart="120.00" departLane="0" departPos="142.73" departSpeed="max" arrivalLane="1" arrivalPos="25.42">
        <route edges="gneE8 gneE9 gneE2"/>
    </vehicle>
    <vehicle id="-flow-random-route-46638b33-fd0c-417a-9a14-1c2285a3e654-8204641149741729210-0-0.1" type="actor-car-7258006950093463382" depart="120.00" departLane="1" departPos="41.46" departSpeed="max" arrivalLane="0" arrivalPos="12.18">
        <route edges="gneE5 gneE7 gneE7.117 gneE10 gneE3"/>
    </vehicle>
    <vehicle id="-flow-random-route-4b8ce8e8-d519-4db8-b38c-c023d245a922-8204641149741729210-4-0.1" type="actor-car-7258006950093463382" depart="120.00" departLane="1" departPos="32.90" departSpeed="max" arrivalLane="1" arrivalPos="94.52">
        <route edges="gneE1.12 gneE5 gneE7 gneE7.117 gneE10"/>
    </vehicle>
    <vehicle id="-flow-random-route-50292b62-9fbf-4f97-8ade-e7e8636384fd-8204641149741729210-17-0.1" type="actor-car-7258006950093463382" depart="120.00" departLane="0" departPos="10.39" departSpeed="max" arrivalLane="0" arrivalPos="19.22">
        <route edges="gneE3 gneE1 gneE1.12 gneE5 gneE7 gneE7.117 gneE10 gneE3 gneE1 gneE16"/>
    </vehicle>
    <vehicle id="-flow-random-route-52ea6f38-c10d-4a0b-9721-8848c1b5d8c6-8204641149741729210-19-0.1" type="actor-car-7258006950093463382" depart="120.00" departLane="1" departPos="139.88" departSpeed="max" arrivalLane="0" arrivalPos="27.74">
        <route edges="gneE7.117 gneE10 gneE3"/>
    </vehicle>
    <vehicle id="-flow-random-route-69827a26-ef8c-4509-8b31-d0eec59f48f6-8204641149741729210-5-0.1" type="actor-car-7258006950093463382" depart="120.00" departLane="1" departPos="51.03" departSpeed="max" arrivalLane="1" arrivalPos="9.22">
        <route edges="gneE9 gneE2 gneE1"/>
    </vehicle>
    <vehicle id="-flow-random-route-77ff6896-0357-47e5-8d15-bbcaa5073f26-8204641149741729210-3-0.1" type="actor-car-7258006950093463382" depart="120.00" departLane="1" departPos="86.24" departSpeed="max" arrivalLane="0" arrivalPos="123.11">
        <route edges="gneE1.12 gneE5 gneE7 gneE7.117 gneE7.141 gneE8 gneE9 gneE2 gneE1 gneE16"/>
    </vehicle>
    <vehicle id="-flow-random-route-8e7b7a36-a867-4d02-aa54-51568aad21eb-8204641149741729210-1-0.1" type="actor-car-7258006950093463382" depart="120.00" departLane="0" departPos="54.68" departSpeed="max" arrivalLane="0" arrivalPos="45.78">
        <route edges="gneE7.141 gneE8 gneE9 gneE2 gneE1 gneE1.12 gneE5 gneE7 gneE7.117 gneE10"/>
    </vehicle>
    <vehicle id="-flow-random-route-b1cf3258-cfcf-4685-bb13-37c75d025121-8204641149741729210-14-0.1" type="actor-car-7258006950093463382" depart="120.00" departLane="0" departPos="0.98" departSpeed="max" arrivalLane="0" arrivalPos="31.10">
        <route edges="gneE5 gneE7 gneE7.117 gneE7.141 gneE8 gneE9 gneE2 gneE1 gneE1.12 gneE5"/>
    </vehicle>
    <vehicle id="-flow-random-route-b8edb737-4821-4405-8b83-86d7f8668944-8204641149741729210-23-0.1" type="actor-car-7258006950093463382" depart="120.00" departLane="1" departPos="75.70" departSpeed="max" arrivalLane="1" arrivalPos="20.39">
        <route edges="gneE9 gneE2 gneE1"/>
    </vehicle>
    <vehicle id="-flow-random-route-c3b9f1cb-4550-487c-a7ae-fa3e2b4f4367-8204641149741729210-2-0.1" type="actor-car-7258006950093463382" depart="120.00" departLane="0" departPos="80.76" departSpeed="max" arrivalLane="1" arrivalPos="8.62">
        <route edges="gneE9 gneE2 gneE1 gneE1.12 gneE5 gneE7 gneE7.117 gneE7.141 gneE8 gneE9"/>
    </vehicle>
    <vehicle id="-flow-random-route-cc1442af-8940-43a4-ad30-70611ea49cc9-8204641149741729210-18-0.1" type="actor-car-7258006950093463382" depart="120.00" departLane="0" departPos="63.04" departSpeed="max" arrivalLane="0" arrivalPos="19.94">
        <route edges="gneE7.141 gneE8 gneE9 gneE2 gneE1 gneE1.12 gneE5 gneE7 gneE7.117 gneE10"/>
    </vehicle>
    <vehicle id="-flow-random-route-ce10fbb4-40ca-4f6a-beac-0e17a21a86ba-8204641149741729210-11-0.1" type="actor-car-7258006950093463382" depart="120.00" departLane="0" departPos="52.27" departSpeed="max" arrivalLane="1" arrivalPos="28.92">
        <route edges="gneE5 gneE7 gneE7.117 gneE10 gneE3"/>
    </vehicle>
    <vehicle id="-flow-random-route-e54e632f-5a40-49d5-8b32-de2f0a59b11b-8204641149741729210-8-0.1" type="actor-car-7258006950093463382" depart="120.00" departLane="0" departPos="25.80" departSpeed="max" arrivalLane="0" arrivalPos="131.61">
        <route edges="gneE5 gneE7 gneE7.117 gneE7.141 gneE8 gneE9 gneE2 gneE1 gneE1.12 gneE5"/>
    </vehicle>
    <vehicle id="-flow-random-route-e73b1133-b704-4f32-86bf-d580b9eec624-8204641149741729210-26-0.1" type="actor-car-7258006950093463382" depart="120.00" departLane="0" departPos="28.73" departSpeed="max" arrivalLane="1" arrivalPos="79.57">
        <route edges="gneE16 gneE7.117 gneE10"/>
    </vehicle>
    <vehicle id="-flow-random-route-eaca0c62-2b63-4499-b894-f9dbbd92bce2-8204641149741729210-22-0.1" type="actor-car-7258006950093463382" depart="120.00" departLane="1" departPos="78.44" departSpeed="max" arrivalLane="0" arrivalPos="6.23">
        <route edges="gneE5 gneE7 gneE7.117 gneE7.141 gneE8 gneE9 gneE2 gneE1 gneE1.12 gneE5"/>
    </vehicle>
    <vehicle id="-flow-random-route-ec0f8a5b-7bcc-4601-8759-e48df497199c-8204641149741729210-12-0.1" type="actor-car-7258006950093463382" depart="120.00" departLane="1" departPos="10.60" departSpeed="max" arrivalLane="1" arrivalPos="51.84">
        <route edges="gneE7.141 gneE8 gneE9 gneE2 gneE1 gneE1.12 gneE5 gneE7 gneE7.117 gneE10"/>
    </vehicle>
    <vehicle id="-flow-random-route-ed3bac9b-13fa-46a2-af52-ebc9c42a5dbf-8204641149741729210-20-0.1" type="actor-car-7258006950093463382" depart="120.00" departLane="1" departPos="57.92" departSpeed="max" arrivalLane="1" arrivalPos="35.13">
        <route edges="gneE7.117 gneE10 gneE3 gneE1 gneE16 gneE7.117 gneE7.141 gneE8 gneE9 gneE2"/>
    </vehicle>
    <vehicle id="-flow-random-route-fa0aafea-9716-4064-ad80-4501601301e1-8204641149741729210-27-0.1" type="actor-car-7258006950093463382" depart="120.00" departLane="0" departPos="22.38" departSpeed="max" arrivalLane="0" arrivalPos="75.84">
        <route edges="gneE7 gneE7.117 gneE10 gneE3 gneE1 gneE16 gneE7.117 gneE7.141 gneE8 gneE9"/>
    </vehicle>
    <vehicle id="-flow-random-route-fd3c202c-3ccc-4b9c-a2cd-c516909654a7-8204641149741729210-29-0.1" type="actor-car-7258006950093463382" depart="120.00" departLane="0" departPos="44.91" departSpeed="max" arrivalLane="0" arrivalPos="71.29">
        <route edges="gneE2 gneE1 gneE16"/>
    </vehicle>
    <vehicle id="-flow-random-route-027303b0-6bf2-4ab1-b25d-d4d882395b74-8204641149741729210-16-0.2" type="actor-car-7258006950093463382" depart="240.00" departLane="0" departPos="110.65" departSpeed="max" arrivalLane="1" arrivalPos="10.24">
        <route edges="gneE8 gneE9 gneE2"/>
    </vehicle>
    <vehicle id="-flow-random-route-0df75451-44ea-4927-b967-a7bcc89ea72b-8204641149741729210-10-0.2" type="actor-car-7258006950093463382" depart="240.00" departLane="0" departPos="101.00" departSpeed="max" arrivalLane="1" arrivalPos="35.45">
        <route edges="gneE16 gneE7.117 gneE10 gneE3 gneE1"/>
    </vehicle>
    <vehicle id="-flow-random-route-12d18fe7-e8a2-4e94-b269-9119145c37ad-8204641149741729210-6-0.2" type="actor-car-7258006950093463382" depart="240.00" departLane="1" departPos="8.63" departSpeed="max" arrivalLane="0" arrivalPos="29.86">
        <route edges="gneE1 gneE1.12 gneE5 gneE7 gneE7.117 gneE7.141 gneE8 gneE9 gneE2 gneE1"/>
    </vehicle>
    <vehicle id="-flow-random-route-2d0f2f84-d7c5-4199-bc2f-1986df1335d8-8204641149741729210-21-0.2" type="actor-car-7258006950093463382" depart="240.00" departLane="0" departPos="46.08" departSpeed="max" arrivalLane="1" arrivalPos="9.68">
        <route edges="gneE10 gneE3 gneE1"/>
    </vehicle>
    <vehicle id="-flow-random-route-2d646a81-cdec-43c3-8e2a-43b6e5b65e6a-8204641149741729210-24-0.2" type="actor-car-7258006950093463382" depart="240.00" departLane="0" departPos="152.32" departSpeed="max" arrivalLane="1" arrivalPos="31.01">
        <route edges="gneE8 gneE9 gneE2 gneE1 gneE1.12 gneE5 gneE7 gneE7.117 gneE7.141 gneE8"/>
    </vehicle>
    <vehicle id="-flow-random-route-376bc81d-d85d-4ef3-9f68-c572f8204550-8204641149741729210-15-0.2" type="actor-car-7258006950093463382" depart="240.00" departLane="1" departPos="101.44" departSpeed="max" arrivalLane="0" arrivalPos="32.83">
        <route edges="gneE1.12 gneE5 gneE7 gneE7.117 gneE7.141 gneE8 gneE9 gneE2 gneE1 gneE16"/>
    </vehicle>
    <vehicle id="-flow-random-route-3ab26730-f13c-4fd8-91f7-8fe25db020d9-8204641149741729210-7-0.2" type="actor-car-7258006950093463382" depart="240.00" departLane="0" departPos="127.37" departSpeed="max" arrivalLane="0" arrivalPos="60.15">
        <route edges="gneE16 gneE7.117 gneE10 gneE3 gneE1 gneE16 gneE7.117 gneE7.141 gneE8 gneE9"/>
    </vehicle>
    <vehicle id="-flow-random-route-3b80a85c-3c4f-45e6-a7ab-f846cf876a0b-8204641149741729210-28-0.2" type="actor-car-7258006950093463382" depart="240.00" departLane="0" departPos="63.76" departSpeed="max" arrivalLane="1" arrivalPos="49.06">
        <route edges="gneE16 gneE7.117 gneE7.141 gneE8 gneE9 gneE2 gneE1 gneE1.12 gneE5 gneE7"/>
    </vehicle>
    <vehicle id="-flow-random-route-3d386b4e-9bb4-4872-a721-d5c221c04c28-8204641149741729210-25-0.2" type="actor-car-7258006950093463382" depart="240.00" departLane="0" departPos="3.52" departSpeed="max" arrivalLane="0" arrivalPos="170.89">
        <route edges="gneE7.117 gneE7.141 gneE8"/>
    </vehicle>
    <vehicle id="-flow-random-route-42cffc03-eb68-45cd-b966-c7b82f9c469b-8204641149741729210-9-0.2" type="actor-car-7258006950093463382" depart="240.00" departLane="0" departPos="32.02" departSpeed="max" arrivalLane="0" arrivalPos="63.63">
        <route edges="gneE2 gneE1 gneE16 gneE7.117 gneE10"/>
    </vehicle>
    <vehicle id="-flow-random-route-4419b8fd-f0f7-4dd5-a528-9ba3f7ef4ad2-8204641149741729210-13-0.2" type="actor-car-7258006950093463382" depart="240.00" departLane="0" departPos="142.73" departSpeed="max" arrivalLane="1" arrivalPos="25.42">
        <route edges="gneE8 gneE9 gneE2"/>
    </vehicle>
    <vehicle id="-flow-random-route-46638b33-fd0c-417a-9a14-1c2285a3e654-8204641149741729210-0-0.2" type="actor-car-7258006950093463382" depart="240.00" departLane="1" departPos="41.46" departSpeed="max" arrivalLane="0" arrivalPos="12.18">
        <route edges="gneE5 gneE7 gneE7.117 gneE10 gneE3"/>
    </vehicle>
    <vehicle id="-flow-random-route-4b8ce8e8-d519-4db8-b38c-c023d245a922-8204641149741729210-4-0.2" type="actor-car-7258006950093463382" depart="240.00" departLane="1" departPos="32.90" departSpeed="max" arrivalLane="1" arrivalPos="94.52">
        <route edges="gneE1.12 gneE5 gneE7 gneE7.117 gneE10"/>
    </vehicle>
    <vehicle id="-flow-random-route-50292b62-9fbf-4f97-8ade-e7e8636384fd-8204641149741729210-17-0.2" type="actor-car-7258006950093463382" depart="240.00" departLane="0" departPos="10.39" departSpeed="max" arrivalLane="0" arrivalPos="19.22">
        <route edges="gneE3 gneE1 gneE1.12 gneE5 gneE7 gneE7.117 gneE10 gneE3 gneE1 gneE16"/>
    </vehicle>
    <vehicle id="-flow-random-route-52ea6f38-c10d-4a0b-9721-8848c1b5d8c6-8204641149741729210-19-0.2" type="actor-car-7258006950093463382" depart="240.00" departLane="1" departPos="139.88" departSpeed="max" arrivalLane="0" arrivalPos="27.74">
        <route edges="gneE7.117 gneE10 gneE3"/>
    </vehicle>
    <vehicle id="-flow-random-route-69827a26-ef8c-4509-8b31-d0eec59f48f6-8204641149741729210-5-0.2" type="actor-car-7258006950093463382" depart="240.00" departLane="1" departPos="51.03" departSpeed="max" arrivalLane="1" arrivalPos="9.22">
        <route edges="gneE9 gneE2 gneE1"/>
    </vehicle>
    <vehicle id="-flow-random-route-77ff6896-0357-47e5-8d15-bbcaa5073f26-8204641149741729210-3-0.2" type="actor-car-7258006950093463382" depart="240.00" departLane="1" departPos="86.24" departSpeed="max" arrivalLane="0" arrivalPos="123.11">
        <route edges="gneE1.12 gneE5 gneE7 gneE7.117 gneE7.141 gneE8 gneE9 gneE2 gneE1 gneE16"/>
    </vehicle>
    <vehicle id="-flow-random-route-8e7b7a36-a867-4d02-aa54-51568aad21eb-8204641149741729210-1-0.2" type="actor-car-7258006950093463382" depart="240.00" departLane="0" departPos="54.68" departSpeed="max" arrivalLane="0" arrivalPos="45.78">
        <route edges="gneE7.141 gneE8 gneE9 gneE2 gneE1 gneE1.12 gneE5 gneE7 gneE7.117 gneE10"/>
    </vehicle>
    <vehicle id="-flow-random-route-b1cf3258-cfcf-4685-bb13-37c75d025121-8204641149741729210-14-0.2" type="actor-car-7258006950093463382" depart="240.00" departLane="0" departPos="0.98" departSpeed="max" arrivalLane="0" arrivalPos="31.10">
        <route edges="gneE5 gneE7 gneE7.117 gneE7.141 gneE8 gneE9 gneE2 gneE1 gneE1.12 gneE5"/>
    </vehicle>
    <vehicle id="-flow-random-route-b8edb737-4821-4405-8b83-86d7f8668944-8204641149741729210-23-0.2" type="actor-car-7258006950093463382" depart="240.00" departLane="1" departPos="75.70" departSpeed="max" arrivalLane="1" arrivalPos="20.39">
        <route edges="gneE9 gneE2 gneE1"/>
    </vehicle>
    <vehicle id="-flow-random-route-c3b9f1cb-4550-487c-a7ae-fa3e2b4f4367-8204641149741729210-2-0.2" type="actor-car-7258006950093463382" depart="240.00" departLane="0" departPos="80.76" departSpeed="max" arrivalLane="1" arrivalPos="8.62">
        <route edges="gneE9 gneE2 gneE1 gneE1.12 gneE5 gneE7 gneE7.117 gneE7.141 gneE8 gneE9"/>
    </vehicle>
    <vehicle id="-flow-random-route-cc1442af-8940-43a4-ad30-70611ea49cc9-8204641149741729210-18-0.2" type="actor-car-7258006950093463382" depart="240.00" departLane="0" departPos="63.04" departSpeed="max" arrivalLane="0" arrivalPos="19.94">
        <route edges="gneE7.141 gneE8 gneE9 gneE2 gneE1 gneE1.12 gneE5 gneE7 gneE7.117 gneE10"/>
    </vehicle>
    <vehicle id="-flow-random-route-ce10fbb4-40ca-4f6a-beac-0e17a21a86ba-8204641149741729210-11-0.2" type="actor-car-7258006950093463382" depart="240.00" departLane="0" departPos="52.27" departSpeed="max" arrivalLane="1" arrivalPos="28.92">
        <route edges="gneE5 gneE7 gneE7.117 gneE10 gneE3"/>
    </vehicle>
    <vehicle id="-flow-random-route-e54e632f-5a40-49d5-8b32-de2f0a59b11b-8204641149741729210-8-0.2" type="actor-car-7258006950093463382" depart="240.00" departLane="0" departPos="25.80" departSpeed="max" arrivalLane="0" arrivalPos="131.61">
        <route edges="gneE5 gneE7 gneE7.117 gneE7.141 gneE8 gneE9 gneE2 gneE1 gneE1.12 gneE5"/>
    </vehicle>
    <vehicle id="-flow-random-route-e73b1133-b704-4f32-86bf-d580b9eec624-8204641149741729210-26-0.2" type="actor-car-7258006950093463382" depart="240.00" departLane="0" departPos="28.73" departSpeed="max" arrivalLane="1" arrivalPos="79.57">
        <route edges="gneE16 gneE7.117 gneE10"/>
    </vehicle>
    <vehicle id="-flow-random-route-eaca0c62-2b63-4499-b894-f9dbbd92bce2-8204641149741729210-22-0.2" type="actor-car-7258006950093463382" depart="240.00" departLane="1" departPos="78.44" departSpeed="max" arrivalLane="0" arrivalPos="6.23">
        <route edges="gneE5 gneE7 gneE7.117 gneE7.141 gneE8 gneE9 gneE2 gneE1 gneE1.12 gneE5"/>
    </vehicle>