<?xml version="1.0" encoding="UTF-8"?>

<!-- generated on Sun Aug 30 13:07:46 2020 by Eclipse SUMO duarouter Version 1.6.0
<configuration xmlns:xsi="http://www.w3.org/2001/XMLSchema-instance" xsi:noNamespaceSchemaLocation="http://sumo.dlr.de/xsd/duarouterConfiguration.xsd">

    <input>
        <net-file value="../dataset_public/intersection_loop/its_a/map.net.xml"/>
        <route-files value="/tmp/tmpzov73eda/trips.trips.xml"/>
    </input>

    <output>
        <output-file value="../dataset_public/intersection_loop/its_a/traffic/30_patient_car.rou.xml"/>
        <alternatives-output value="../dataset_public/intersection_loop/its_a/traffic/30_patient_car.rou.alt.xml"/>
    </output>

    <processing>
        <unsorted-input value="true"/>
        <repair value="true"/>
    </processing>

    <report>
        <error-log value="/tmp/smarts/_duarouter_routing/traffic/30_patient_car.log"/>
        <no-step-log value="true"/>
    </report>

    <random_number>
        <seed value="42"/>
    </random_number>

</configuration>
-->

<routes xmlns:xsi="http://www.w3.org/2001/XMLSchema-instance" xsi:noNamespaceSchemaLocation="http://sumo.dlr.de/xsd/routes_file.xsd">
    <vType id="actor-car--2710368378241140358" minGap="2.50" speedFactor="normc(0.50,0.20,0.20,2.00)" vClass="passenger" impatience="0.50" lcCooperative="0.5" lcImpatience="0" jmDriveAfterYellowTime="1.0" accel="2.6" decel="4.5" sigma="0.5"/>
    <vehicle id="-flow-random-route-1c1c9591-1cd0-4cf5-97c3-23cb62864a8e-8932849019834265949-9-0.0" type="actor-car--2710368378241140358" depart="0.00" departLane="0" departPos="25.52" departSpeed="max" arrivalLane="0" arrivalPos="32.84">
        <route edges="-gneE15 -gneE14 -gneE13 -gneE11 gneE12 gneE8"/>
    </vehicle>
    <vehicle id="-flow-random-route-2bf948e7-5f06-4919-add3-109363b00c06-8932849019834265949-12-0.0" type="actor-car--2710368378241140358" depart="0.00" departLane="0" departPos="10.46" departSpeed="max" arrivalLane="0" arrivalPos="16.57">
        <route edges="gneE11 gneE13 gneE14 gneE15 -gneE12"/>
    </vehicle>
    <vehicle id="-flow-random-route-3a307673-eb48-4300-8e7b-93cd44083372-8932849019834265949-24-0.0" type="actor-car--2710368378241140358" depart="0.00" departLane="0" departPos="88.28" departSpeed="max" arrivalLane="0" arrivalPos="85.30">
        <route edges="-gneE12 gneE11 gneE13"/>
    </vehicle>
    <vehicle id="-flow-random-route-48732112-58d1-4a7f-98b3-c498da65bb72-8932849019834265949-28-0.0" type="actor-car--2710368378241140358" depart="0.00" departLane="0" departPos="102.33" departSpeed="max" arrivalLane="0" arrivalPos="23.88">
        <route edges="gneE14 gneE15 -gneE12 gneE11 gneE13 gneE14 gneE15 gneE8 gneE9 gneE2"/>
    </vehicle>
    <vehicle id="-flow-random-route-515b0796-636a-464a-9483-d3f6a7e720e2-8932849019834265949-10-0.0" type="actor-car--2710368378241140358" depart="0.00" departLane="0" departPos="36.07" departSpeed="max" arrivalLane="0" arrivalPos="26.35">
        <route edges="gneE12 gneE8 gneE9 gneE2 gneE12"/>
    </vehicle>
    <vehicle id="-flow-random-route-554757bb-1984-43d8-8de8-9cf3ed2f0dd7-8932849019834265949-8-0.0" type="actor-car--2710368378241140358" depart="0.00" departLane="0" departPos="31.59" departSpeed="max" arrivalLane="0" arrivalPos="42.51">
        <route edges="gneE15 -gneE12 gneE11 gneE13 gneE14"/>
    </vehicle>
    <vehicle id="-flow-random-route-596b52fd-2214-47c3-99a0-c4c4f1717043-8932849019834265949-2-0.0" type="actor-car--2710368378241140358" depart="0.00" departLane="0" departPos="22.44" departSpeed="max" arrivalLane="0" arrivalPos="114.48">
        <route edges="gneE12 gneE8 gneE9 gneE2 gneE12"/>
    </vehicle>
    <vehicle id="-flow-random-route-59c082e0-f8d5-4fb0-a6c8-678cf876e42a-8932849019834265949-6-0.0" type="actor-car--2710368378241140358" depart="0.00" departLane="0" departPos="68.23" departSpeed="max" arrivalLane="0" arrivalPos="4.65">
        <route edges="gneE12 gneE8 gneE9"/>
    </vehicle>
    <vehicle id="-flow-random-route-5b35e8c6-6dc3-4fa2-925a-62a30d55e4cb-8932849019834265949-14-0.0" type="actor-car--2710368378241140358" depart="0.00" departLane="0" departPos="22.06" departSpeed="max" arrivalLane="0" arrivalPos="73.89">
        <route edges="-gneE14 -gneE13 -gneE11 gneE12 gneE8 gneE9 gneE2 gneE11 gneE13 gneE14"/>
    </vehicle>
    <vehicle id="-flow-random-route-736d0c98-3361-4b63-ae42-dcb114b21504-8932849019834265949-22-0.0" type="actor-car--2710368378241140358" depart="0.00" departLane="0" departPos="6.12" departSpeed="max" arrivalLane="0" arrivalPos="54.03">
        <route edges="gneE15 -gneE12 gneE11 gneE13 gneE14 gneE15 gneE8 gneE9 gneE2 gneE12"/>
    </vehicle>
    <vehicle id="-flow-random-route-73d81323-ff69-468c-b4ae-119347a51757-8932849019834265949-29-0.0" type="actor-car--2710368378241140358" depart="0.00" departLane="0" departPos="29.97" departSpeed="max" arrivalLane="0" arrivalPos="7.56">
        <route edges="gneE2 gneE11 gneE13 gneE14 gneE15"/>
    </vehicle>
    <vehicle id="-flow-random-route-8bf93c7c-8a26-462a-ba2e-889410139300-8932849019834265949-11-0.0" type="actor-car--2710368378241140358" depart="0.00" departLane="0" departPos="63.68" departSpeed="max" arrivalLane="0" arrivalPos="19.34">
        <route edges="gneE14 gneE15 -gneE12 gneE11 gneE13"/>
    </vehicle>
    <vehicle id="-flow-random-route-8d9c8213-c899-43a4-82e4-b429cfcd3bd3-8932849019834265949-23-0.0" type="actor-car--2710368378241140358" depart="0.00" departLane="0" departPos="56.02" departSpeed="max" arrivalLane="1" arrivalPos="4.81">
        <route edges="gneE8 gneE9 gneE2"/>
    </vehicle>
    <vehicle id="-flow-random-route-937676c2-540c-43d2-b78b-e2627156eb0a-8932849019834265949-27-0.0" type="actor-car--2710368378241140358" depart="0.00" departLane="0" departPos="77.55" departSpeed="max" arrivalLane="0" arrivalPos="39.51">
        <route edges="-gneE14 -gneE13 -gneE11 gneE12 -gneE15"/>
    </vehicle>
    <vehicle id="-flow-random-route-959a2e71-1216-479c-a56a-9f3bd2718e95-8932849019834265949-20-0.0" type="actor-car--2710368378241140358" depart="0.00" departLane="0" departPos="29.29" departSpeed="max" arrivalLane="0" arrivalPos="49.45">
        <route edges="gneE13 gneE14 gneE15 -gneE12 gneE11"/>
    </vehicle>
    <vehicle id="-flow-random-route-992701d4-83e9-4907-8673-d4e577b4e947-8932849019834265949-4-0.0" type="actor-car--2710368378241140358" depart="0.00" departLane="1" departPos="40.85" departSpeed="max" arrivalLane="0" arrivalPos="30.50">
        <route edges="gneE9 gneE2 gneE11"/>
    </vehicle>
    <vehicle id="-flow-random-route-b3362698-05e9-40eb-9988-1a8d14813a7e-8932849019834265949-7-0.0" type="actor-car--2710368378241140358" depart="0.00" departLane="0" departPos="36.42" departSpeed="max" arrivalLane="0" arrivalPos="20.79">
        <route edges="gneE15 -gneE12 gneE11 gneE13 gneE14 gneE15 gneE8 gneE9 gneE2 gneE12"/>
    </vehicle>
    <vehicle id="-flow-random-route-b3fed974-1f65-4859-8ef8-c9a90af6e051-8932849019834265949-5-0.0" type="actor-car--2710368378241140358" depart="0.00" departLane="0" departPos="37.51" departSpeed="max" arrivalLane="0" arrivalPos="44.48">
        <route edges="gneE9 gneE2 gneE12 -gneE15 -gneE14 -gneE13 -gneE11 gneE12 gneE8 gneE9"/>
    </vehicle>
    <vehicle id="-flow-random-route-be2931bd-b44a-4901-845b-e9418db0cfbe-8932849019834265949-0-0.0" type="actor-car--2710368378241140358" depart="0.00" departLane="0" departPos="2.57" departSpeed="max" arrivalLane="0" arrivalPos="93.48">
        <route edges="gneE14 gneE15 -gneE12 gneE11 gneE13"/>
    </vehicle>
    <vehicle id="-flow-random-route-c6dc534a-809d-4116-a8db-74a5382973ab-8932849019834265949-18-0.0" type="actor-car--2710368378241140358" depart="0.00" departLane="0" departPos="38.66" departSpeed="max" arrivalLane="1" arrivalPos="23.48">
        <route edges="gneE2 gneE12 gneE8"/>
    </vehicle>
    <vehicle id="-flow-random-route-d7001cac-034a-481c-b46b-e3824824832a-8932849019834265949-26-0.0" type="actor-car--2710368378241140358" depart="0.00" departLane="0" departPos="45.47" departSpeed="max" arrivalLane="0" arrivalPos="62.53">
        <route edges="gneE12 -gneE15 -gneE14 -gneE13 -gneE11 gneE12"/>
    </vehicle>
    <vehicle id="-flow-random-route-db5b61b3-157e-46fd-bee9-5bf8ae5cadbd-8932849019834265949-19-0.0" type="actor-car--2710368378241140358" depart="0.00" departLane="0" departPos="35.79" departSpeed="max" arrivalLane="0" arrivalPos="61.44">
        <route edges="-gneE15 -gneE14 -gneE13 -gneE11 gneE12"/>
    </vehicle>
    <vehicle id="-flow-random-route-e5a814b8-4bd3-4041-8884-a69c11f351aa-8932849019834265949-15-0.0" type="actor-car--2710368378241140358" depart="0.00" departLane="0" departPos="48.96" departSpeed="max" arrivalLane="1" arrivalPos="39.54">
        <route edges="-gneE14 -gneE13 -gneE11 gneE12 -gneE15 -gneE14 -gneE13 -gneE11 gneE12 gneE8"/>
    </vehicle>
    <vehicle id="-flow-random-route-e60c39ae-d889-4080-ae6b-efc8b465b4e2-8932849019834265949-25-0.0" type="actor-car--2710368378241140358" depart="0.00" departLane="0" departPos="97.81" departSpeed="max" arrivalLane="0" arrivalPos="75.07">
        <route edges="-gneE14 -gneE13 -gneE11 gneE12 gneE8 gneE9 gneE2 gneE11 gneE13 gneE14"/>
    </vehicle>
    <vehicle id="-flow-random-route-e8617a6b-4fc0-4111-a820-f391c61eefed-8932849019834265949-16-0.0" type="actor-car--2710368378241140358" depart="0.00" departLane="0" departPos="41.26" departSpeed="max" arrivalLane="0" arrivalPos="18.03">
        <route edges="gneE2 gneE12 -gneE15 -gneE14 -gneE13"/>
    </vehicle>
    <vehicle id="-flow-random-route-ecb7e334-cf5c-4834-b123-4054ec5706a0-8932849019834265949-17-0.0" type="actor-car--2710368378241140358" depart="0.00" departLane="0" departPos="103.85" departSpeed="max" arrivalLane="0" arrivalPos="11.20">
        <route edges="-gneE12 gneE11 gneE13 gneE14 gneE15"/>
    </vehicle>
    <vehicle id="-flow-random-route-f0a877fe-defe-42f2-a739-f9058b3d4675-8932849019834265949-1-0.0" type="actor-car--2710368378241140358" depart="0.00" departLane="0" departPos="10.47" departSpeed="max" arrivalLane="0" arrivalPos="77.88">
        <route edges="-gneE11 gneE12 gneE8 gneE9 gneE2 gneE11 gneE13 gneE14 gneE15 -gneE12"/>
    </vehicle>
    <vehicle id="-flow-random-route-f0fe50a8-0621-4b83-9969-23220ac1d16b-8932849019834265949-21-0.0" type="actor-car--2710368378241140358" depart="0.00" departLane="1" departPos="52.50" departSpeed="max" arrivalLane="0" arrivalPos="47.39">
        <route edges="gneE8 gneE9 gneE2 gneE12 gneE8 gneE9 gneE2 gneE11 gneE13 gneE14"/>
    </vehicle>
    <vehicle id="-flow-random-route-f9612b47-09a3-4dda-9d34-637a52b9e0b7-8932849019834265949-13-0.0" type="actor-car--2710368378241140358" depart="0.00" departLane="0" departPos="41.04" departSpeed="max" arrivalLane="1" arrivalPos="10.05">
        <route edges="-gneE13 -gneE11 gneE12 gneE8 gneE9 gneE2"/>
    </vehicle>
    <vehicle id="-flow-random-route-fe077c9e-9f57-445c-b05e-448dbe822a44-8932849019834265949-3-0.0" type="actor-car--2710368378241140358" depart="0.00" departLane="0" departPos="0.85" departSpeed="max" arrivalLane="0" arrivalPos="27.06">
        <route edges="gneE12 -gneE15 -gneE14 -gneE13 -gneE11 gneE12"/>
    </vehicle>
    <vehicle id="-flow-random-route-1c1c9591-1cd0-4cf5-97c3-23cb62864a8e-8932849019834265949-9-0.1" type="actor-car--2710368378241140358" depart="120.00" departLane="0" departPos="25.52" departSpeed="max" arrivalLane="0" arrivalPos="32.84">
        <route edges="-gneE15 -gneE14 -gneE13 -gneE11 gneE12 gneE8"/>
    </vehicle>
    <vehicle id="-flow-random-route-2bf948e7-5f06-4919-add3-109363b00c06-8932849019834265949-12-0.1" type="actor-car--2710368378241140358" depart="120.00" departLane="0" departPos="10.46" departSpeed="max" arrivalLane="0" arrivalPos="16.57">
        <route edges="gneE11 gneE13 gneE14 gneE15 -gneE12"/>
    </vehicle>
    <vehicle id="-flow-random-route-3a307673-eb48-4300-8e7b-93cd44083372-8932849019834265949-24-0.1" type="actor-car--2710368378241140358" depart="120.00" departLane="0" departPos="88.28" departSpeed="max" arrivalLane="0" arrivalPos="85.30">
        <route edges="-gneE12 gneE11 gneE13"/>
    </vehicle>
    <vehicle id="-flow-random-route-48732112-58d1-4a7f-98b3-c498da65bb72-8932849019834265949-28-0.1" type="actor-car--2710368378241140358" depart="120.00" departLane="0" departPos="102.33" departSpeed="max" arrivalLane="0" arrivalPos="23.88">
        <route edges="gneE14 gneE15 -gneE12 gneE11 gneE13 gneE14 gneE15 gneE8 gneE9 gneE2"/>
    </vehicle>
    <vehicle id="-flow-random-route-515b0796-636a-464a-9483-d3f6a7e720e2-8932849019834265949-10-0.1" type="actor-car--2710368378241140358" depart="120.00" departLane="0" departPos="36.07" departSpeed="max" arrivalLane="0" arrivalPos="26.35">
        <route edges="gneE12 gneE8 gneE9 gneE2 gneE12"/>
    </vehicle>
    <vehicle id="-flow-random-route-554757bb-1984-43d8-8de8-9cf3ed2f0dd7-8932849019834265949-8-0.1" type="actor-car--2710368378241140358" depart="120.00" departLane="0" departPos="31.59" departSpeed="max" arrivalLane="0" arrivalPos="42.51">
        <route edges="gneE15 -gneE12 gneE11 gneE13 gneE14"/>
    </vehicle>
    <vehicle id="-flow-random-route-596b52fd-2214-47c3-99a0-c4c4f1717043-8932849019834265949-2-0.1" type="actor-car--2710368378241140358" depart="120.00" departLane="0" departPos="22.44" departSpeed="max" arrivalLane="0" arrivalPos="114.48">
        <route edges="gneE12 gneE8 gneE9 gneE2 gneE12"/>
    </vehicle>
    <vehicle id="-flow-random-route-59c082e0-f8d5-4fb0-a6c8-678cf876e42a-8932849019834265949-6-0.1" type="actor-car--2710368378241140358" depart="120.00" departLane="0" departPos="68.23" departSpeed="max" arrivalLane="0" arrivalPos="4.65">
        <route edges="gneE12 gneE8 gneE9"/>
    </vehicle>
    <vehicle id="-flow-random-route-5b35e8c6-6dc3-4fa2-925a-62a30d55e4cb-8932849019834265949-14-0.1" type="actor-car--2710368378241140358" depart="120.00" departLane="0" departPos="22.06" departSpeed="max" arrivalLane="0" arrivalPos="73.89">
        <route edges="-gneE14 -gneE13 -gneE11 gneE12 gneE8 gneE9 gneE2 gneE11 gneE13 gneE14"/>
    </vehicle>
    <vehicle id="-flow-random-route-736d0c98-3361-4b63-ae42-dcb114b21504-8932849019834265949-22-0.1" type="actor-car--2710368378241140358" depart="120.00" departLane="0" departPos="6.12" departSpeed="max" arrivalLane="0" arrivalPos="54.03">
        <route edges="gneE15 -gneE12 gneE11 gneE13 gneE14 gneE15 gneE8 gneE9 gneE2 gneE12"/>
    </vehicle>
    <vehicle id="-flow-random-route-73d81323-ff69-468c-b4ae-119347a51757-8932849019834265949-29-0.1" type="actor-car--2710368378241140358" depart="120.00" departLane="0" departPos="29.97" departSpeed="max" arrivalLane="0" arrivalPos="7.56">
        <route edges="gneE2 gneE11 gneE13 gneE14 gneE15"/>
    </vehicle>
    <vehicle id="-flow-random-route-8bf93c7c-8a26-462a-ba2e-889410139300-8932849019834265949-11-0.1" type="actor-car--2710368378241140358" depart="120.00" departLane="0" departPos="63.68" departSpeed="max" arrivalLane="0" arrivalPos="19.34">
        <route edges="gneE14 gneE15 -gneE12 gneE11 gneE13"/>
    </vehicle>
    <vehicle id="-flow-random-route-8d9c8213-c899-43a4-82e4-b429cfcd3bd3-8932849019834265949-23-0.1" type="actor-car--2710368378241140358" depart="120.00" departLane="0" departPos="56.02" departSpeed="max" arrivalLane="1" arrivalPos="4.81">
        <route edges="gneE8 gneE9 gneE2"/>
    </vehicle>
    <vehicle id="-flow-random-route-937676c2-540c-43d2-b78b-e2627156eb0a-8932849019834265949-27-0.1" type="actor-car--2710368378241140358" depart="120.00" departLane="0" departPos="77.55" departSpeed="max" arrivalLane="0" arrivalPos="39.51">
        <route edges="-gneE14 -gneE13 -gneE11 gneE12 -gneE15"/>
    </vehicle>
    <vehicle id="-flow-random-route-959a2e71-1216-479c-a56a-9f3bd2718e95-8932849019834265949-20-0.1" type="actor-car--2710368378241140358" depart="120.00" departLane="0" departPos="29.29" departSpeed="max" arrivalLane="0" arrivalPos="49.45">
        <route edges="gneE13 gneE14 gneE15 -gneE12 gneE11"/>
    </vehicle>
    <vehicle id="-flow-random-route-992701d4-83e9-4907-8673-d4e577b4e947-8932849019834265949-4-0.1" type="actor-car--2710368378241140358" depart="120.00" departLane="1" departPos="40.85" departSpeed="max" arrivalLane="0" arrivalPos="30.50">
        <route edges="gneE9 gneE2 gneE11"/>
    </vehicle>
    <vehicle id="-flow-random-route-b3362698-05e9-40eb-9988-1a8d14813a7e-8932849019834265949-7-0.1" type="actor-car--2710368378241140358" depart="120.00" departLane="0" departPos="36.42" departSpeed="max" arrivalLane="0" arrivalPos="20.79">
        <route edges="gneE15 -gneE12 gneE11 gneE13 gneE14 gneE15 gneE8 gneE9 gneE2 gneE12"/>
    </vehicle>
    <vehicle id="-flow-random-route-b3fed974-1f65-4859-8ef8-c9a90af6e051-8932849019834265949-5-0.1" type="actor-car--2710368378241140358" depart="120.00" departLane="0" departPos="37.51" departSpeed="max" arrivalLane="0" arrivalPos="44.48">
        <route edges="gneE9 gneE2 gneE12 -gneE15 -gneE14 -gneE13 -gneE11 gneE12 gneE8 gneE9"/>
    </vehicle>
    <vehicle id="-flow-random-route-be2931bd-b44a-4901-845b-e9418db0cfbe-8932849019834265949-0-0.1" type="actor-car--2710368378241140358" depart="120.00" departLane="0" departPos="2.57" departSpeed="max" arrivalLane="0" arrivalPos="93.48">
        <route edges="gneE14 gneE15 -gneE12 gneE11 gneE13"/>
    </vehicle>
    <vehicle id="-flow-random-route-c6dc534a-809d-4116-a8db-74a5382973ab-8932849019834265949-18-0.1" type="actor-car--2710368378241140358" depart="120.00" departLane="0" departPos="38.66" departSpeed="max" arrivalLane="1" arrivalPos="23.48">
        <route edges="gneE2 gneE12 gneE8"/>
    </vehicle>
    <vehicle id="-flow-random-route-d7001cac-034a-481c-b46b-e3824824832a-8932849019834265949-26-0.1" type="actor-car--2710368378241140358" depart="120.00" departLane="0" departPos="45.47" departSpeed="max" arrivalLane="0" arrivalPos="62.53">
        <route edges="gneE12 -gneE15 -gneE14 -gneE13 -gneE11 gneE12"/>
    </vehicle>
    <vehicle id="-flow-random-route-db5b61b3-157e-46fd-bee9-5bf8ae5cadbd-8932849019834265949-19-0.1" type="actor-car--2710368378241140358" depart="120.00" departLane="0" departPos="35.79" departSpeed="max" arrivalLane="0" arrivalPos="61.44">
        <route edges="-gneE15 -gneE14 -gneE13 -gneE11 gneE12"/>
    </vehicle>
    <vehicle id="-flow-random-route-e5a814b8-4bd3-4041-8884-a69c11f351aa-8932849019834265949-15-0.1" type="actor-car--2710368378241140358" depart="120.00" departLane="0" departPos="48.96" departSpeed="max" arrivalLane="1" arrivalPos="39.54">
        <route edges="-gneE14 -gneE13 -gneE11 gneE12 -gneE15 -gneE14 -gneE13 -gneE11 gneE12 gneE8"/>
    </vehicle>
    <vehicle id="-flow-random-route-e60c39ae-d889-4080-ae6b-efc8b465b4e2-8932849019834265949-25-0.1" type="actor-car--2710368378241140358" depart="120.00" departLane="0" departPos="97.81" departSpeed="max" arrivalLane="0" arrivalPos="75.07">
        <route edges="-gneE14 -gneE13 -gneE11 gneE12 gneE8 gneE9 gneE2 gneE11 gneE13 gneE14"/>
    </vehicle>
    <vehicle id="-flow-random-route-e8617a6b-4fc0-4111-a820-f391c61eefed-8932849019834265949-16-0.1" type="actor-car--2710368378241140358" depart="120.00" departLane="0" departPos="41.26" departSpeed="max" arrivalLane="0" arrivalPos="18.03">
        <route edges="gneE2 gneE12 -gneE15 -gneE14 -gneE13"/>
    </vehicle>
    <vehicle id="-flow-random-route-ecb7e334-cf5c-4834-b123-4054ec5706a0-8932849019834265949-17-0.1" type="actor-car--2710368378241140358" depart="120.00" departLane="0" departPos="103.85" departSpeed="max" arrivalLane="0" arrivalPos="11.20">
        <route edges="-gneE12 gneE11 gneE13 gneE14 gneE15"/>
    </vehicle>
    <vehicle id="-flow-random-route-f0a877fe-defe-42f2-a739-f9058b3d4675-8932849019834265949-1-0.1" type="actor-car--2710368378241140358" depart="120.00" departLane="0" departPos="10.47" departSpeed="max" arrivalLane="0" arrivalPos="77.88">
        <route edges="-gneE11 gneE12 gneE8 gneE9 gneE2 gneE11 gneE13 gneE14 gneE15 -gneE12"/>
    </vehicle>
    <vehicle id="-flow-random-route-f0fe50a8-0621-4b83-9969-23220ac1d16b-8932849019834265949-21-0.1" type="actor-car--2710368378241140358" depart="120.00" departLane="1" departPos="52.50" departSpeed="max" arrivalLane="0" arrivalPos="47.39">
        <route edges="gneE8 gneE9 gneE2 gneE12 gneE8 gneE9 gneE2 gneE11 gneE13 gneE14"/>
    </vehicle>
    <vehicle id="-flow-random-route-f9612b47-09a3-4dda-9d34-637a52b9e0b7-8932849019834265949-13-0.1" type="actor-car--2710368378241140358" depart="120.00" departLane="0" departPos="41.04" departSpeed="max" arrivalLane="1" arrivalPos="10.05">
        <route edges="-gneE13 -gneE11 gneE12 gneE8 gneE9 gneE2"/>
    </vehicle>
    <vehicle id="-flow-random-route-fe077c9e-9f57-445c-b05e-448dbe822a44-8932849019834265949-3-0.1" type="actor-car--2710368378241140358" depart="120.00" departLane="0" departPos="0.85" departSpeed="max" arrivalLane="0" arrivalPos="27.06">
        <route edges="gneE12 -gneE15 -gneE14 -gneE13 -gneE11 gneE12"/>
    </vehicle>
    <vehicle id="-flow-random-route-1c1c9591-1cd0-4cf5-97c3-23cb62864a8e-8932849019834265949-9-0.2" type="actor-car--2710368378241140358" depart="240.00" departLane="0" departPos="25.52" departSpeed="max" arrivalLane="0" arrivalPos="32.84">
        <route edges="-gneE15 -gneE14 -gneE13 -gneE11 gneE12 gneE8"/>
    </vehicle>
    <vehicle id="-flow-random-route-2bf948e7-5f06-4919-add3-109363b00c06-8932849019834265949-12-0.2" type="actor-car--2710368378241140358" depart="240.00" departLane="0" departPos="10.46" departSpeed="max" arrivalLane="0" arrivalPos="16.57">
        <route edges="gneE11 gneE13 gneE14 gneE15 -gneE12"/>
    </vehicle>
    <vehicle id="-flow-random-route-3a307673-eb48-4300-8e7b-93cd44083372-8932849019834265949-24-0.2" type="actor-car--2710368378241140358" depart="240.00" departLane="0" departPos="88.28" departSpeed="max" arrivalLane="0" arrivalPos="85.30">
        <route edges="-gneE12 gneE11 gneE13"/>
    </vehicle>
    <vehicle id="-flow-random-route-48732112-58d1-4a7f-98b3-c498da65bb72-8932849019834265949-28-0.2" type="actor-car--2710368378241140358" depart="240.00" departLane="0" departPos="102.33" departSpeed="max" arrivalLane="0" arrivalPos="23.88">
        <route edges="gneE14 gneE15 -gneE12 gneE11 gneE13 gneE14 gneE15 gneE8 gneE9 gneE2"/>
    </vehicle>
    <vehicle id="-flow-random-route-515b0796-636a-464a-9483-d3f6a7e720e2-8932849019834265949-10-0.2" type="actor-car--2710368378241140358" depart="240.00" departLane="0" departPos="36.07" departSpeed="max" arrivalLane="0" arrivalPos="26.35">
        <route edges="gneE12 gneE8 gneE9 gneE2 gneE12"/>
    </vehicle>
    <vehicle id="-flow-random-route-554757bb-1984-43d8-8de8-9cf3ed2f0dd7-8932849019834265949-8-0.2" type="actor-car--2710368378241140358" depart="240.00" departLane="0" departPos="31.59" departSpeed="max" arrivalLane="0" arrivalPos="42.51">
        <route edges="gneE15 -gneE12 gneE11 gneE13 gneE14"/>
    </vehicle>
    <vehicle id="-flow-random-route-596b52fd-2214-47c3-99a0-c4c4f1717043-8932849019834265949-2-0.2" type="actor-car--2710368378241140358" depart="240.00" departLane="0" departPos="22.44" departSpeed="max" arrivalLane="0" arrivalPos="114.48">
        <route edges="gneE12 gneE8 gneE9 gneE2 gneE12"/>
    </vehicle>
    <vehicle id="-flow-random-route-59c082e0-f8d5-4fb0-a6c8-678cf876e42a-8932849019834265949-6-0.2" type="actor-car--2710368378241140358" depart="240.00" departLane="0" departPos="68.23" departSpeed="max" arrivalLane="0" arrivalPos="4.65">
        <route edges="gneE12 gneE8 gneE9"/>
    </vehicle>
    <vehicle id="-flow-random-route-5b35e8c6-6dc3-4fa2-925a-62a30d55e4cb-8932849019834265949-14-0.2" type="actor-car--2710368378241140358" depart="240.00" departLane="0" departPos="22.06" departSpeed="max" arrivalLane="0" arrivalPos="73.89">
        <route edges="-gneE14 -gneE13 -gneE11 gneE12 gneE8 gneE9 gneE2 gneE11 gneE13 gneE14"/>
    </vehicle>
    <vehicle id="-flow-random-route-736d0c98-3361-4b63-ae42-dcb114b21504-8932849019834265949-22-0.2" type="actor-car--2710368378241140358" depart="240.00" departLane="0" departPos="6.12" departSpeed="max" arrivalLane="0" arrivalPos="54.03">
        <route edges="gneE15 -gneE12 gneE11 gneE13 gneE14 gneE15 gneE8 gneE9 gneE2 gneE12"/>
    </vehicle>
    <vehicle id="-flow-random-route-73d81323-ff69-468c-b4ae-119347a51757-8932849019834265949-29-0.2" type="actor-car--2710368378241140358" depart="240.00" departLane="0" departPos="29.97" departSpeed="max" arrivalLane="0" arrivalPos="7.56">
        <route edges="gneE2 gneE11 gneE13 gneE14 gneE15"/>
    </vehicle>
    <vehicle id="-flow-random-route-8bf93c7c-8a26-462a-ba2e-889410139300-8932849019834265949-11-0.2" type="actor-car--2710368378241140358" depart="240.00" departLane="0" departPos="63.68" departSpeed="max" arrivalLane="0" arrivalPos="19.34">
        <route edges="gneE14 gneE15 -gneE12 gneE11 gneE13"/>
    </vehicle>
    <vehicle id="-flow-random-route-8d9c8213-c899-43a4-82e4-b429cfcd3bd3-8932849019834265949-23-0.2" type="actor-car--2710368378241140358" depart="240.00" departLane="0" departPos="56.02" departSpeed="max" arrivalLane="1" arrivalPos="4.81">
        <route edges="gneE8 gneE9 gneE2"/>
    </vehicle>
    <vehicle id="-flow-random-route-937676c2-540c-43d2-b78b-e2627156eb0a-8932849019834265949-27-0.2" type="actor-car--2710368378241140358" depart="240.00" departLane="0" departPos="77.55" departSpeed="max" arrivalLane="0" arrivalPos="39.51">
        <route edges="-gneE14 -gneE13 -gneE11 gneE12 -gneE15"/>
    </vehicle>
    <vehicle id="-flow-random-route-959a2e71-1216-479c-a56a-9f3bd2718e95-8932849019834265949-20-0.2" type="actor-car--2710368378241140358" depart="240.00" departLane="0" departPos="29.29" departSpeed="max" arrivalLane="0" arrivalPos="49.45">
        <route edges="gneE13 gneE14 gneE15 -gneE12 gneE11"/>
    </vehicle>
    <vehicle id="-flow-random-route-992701d4-83e9-4907-8673-d4e577b4e947-8932849019834265949-4-0.2" type="actor-car--2710368378241140358" depart="240.00" departLane="1" departPos="40.85" departSpeed="max" arrivalLane="0" arrivalPos="30.50">
        <route edges="gneE9 gneE2 gneE11"/>
    </vehicle>
    <vehicle id="-flow-random-route-b3362698-05e9-40eb-9988-1a8d14813a7e-8932849019834265949-7-0.2" type="actor-car--2710368378241140358" depart="240.00" departLane="0" departPos="36.42" departSpeed="max" arrivalLane="0" arrivalPos="20.79">
        <route edges="gneE15 -gneE12 gneE11 gneE13 gneE14 gneE15 gneE8 gneE9 gneE2 gneE12"/>
    </vehicle>
    <vehicle id="-flow-random-route-b3fed974-1f65-4859-8ef8-c9a90af6e051-8932849019834265949-5-0.2" type="actor-car--2710368378241140358" depart="240.00" departLane="0" departPos="37.51" departSpeed="max" arrivalLane="0" arrivalPos="44.48">
        <route edges="gneE9 gneE2 gneE12 -gneE15 -gneE14 -gneE13 -gneE11 gneE12 gneE8 gneE9"/>
    </vehicle>
    <vehicle id="-flow-random-route-be2931bd-b44a-4901-845b-e9418db0cfbe-8932849019834265949-0-0.2" type="actor-car--2710368378241140358" depart="240.00" departLane="0" departPos="2.57" departSpeed="max" arrivalLane="0" arrivalPos="93.48">
        <route edges="gneE14 gneE15 -gneE12 gneE11 gneE13"/>
    </vehicle>
    <vehicle id="-flow-random-route-c6dc534a-809d-4116-a8db-74a5382973ab-8932849019834265949-18-0.2" type="actor-car--2710368378241140358" depart="240.00" departLane="0" departPos="38.66" departSpeed="max" arrivalLane="1" arrivalPos="23.48">
        <route edges="gneE2 gneE12 gneE8"/>
    </vehicle>
    <vehicle id="-flow-random-route-d7001cac-034a-481c-b46b-e3824824832a-8932849019834265949-26-0.2" type="actor-car--2710368378241140358" depart="240.00" departLane="0" departPos="45.47" departSpeed="max" arrivalLane="0" arrivalPos="62.53">
        <route edges="gneE12 -gneE15 -gneE14 -gneE13 -gneE11 gneE12"/>
    </vehicle>
    <vehicle id="-flow-random-route-db5b61b3-157e-46fd-bee9-5bf8ae5cadbd-8932849019834265949-19-0.2" type="actor-car--2710368378241140358" depart="240.00" departLane="0" departPos="35.79" departSpeed="max" arrivalLane="0" arrivalPos="61.44">
        <route edges="-gneE15 -gneE14 -gneE13 -gneE11 gneE12"/>
    </vehicle>
    <vehicle id="-flow-random-route-e5a814b8-4bd3-4041-8884-a69c11f351aa-8932849019834265949-15-0.2" type="actor-car--2710368378241140358" depart="240.00" departLane="0" departPos="48.96" departSpeed="max" arrivalLane="1" arrivalPos="39.54">
        <route edges="-gneE14 -gneE13 -gneE11 gneE12 -gneE15 -gneE14 -gneE13 -gneE11 gneE12 gneE8"/>
    </vehicle>
    <vehicle id="-flow-random-route-e60c39ae-d889-4080-ae6b-efc8b465b4e2-8932849019834265949-25-0.2" type="actor-car--2710368378241140358" depart="240.00" departLane="0" departPos="97.81" departSpeed="max" arrivalLane="0" arrivalPos="75.07">
        <route edges="-gneE14 -gneE13 -gneE11 gneE12 gneE8 gneE9 gneE2 gneE11 gneE13 gneE14"/>
    </vehicle>
    <vehicle id="-flow-random-route-e8617a6b-4fc0-4111-a820-f391c61eefed-8932849019834265949-16-0.2" type="actor-car--2710368378241140358" depart="240.00" departLane="0" departPos="41.26" departSpeed="max" arrivalLane="0" arrivalPos="18.03">
        <route edges="gneE2 gneE12 -gneE15 -gneE14 -gneE13"/>
    </vehicle>
    <vehicle id="-flow-random-route-ecb7e334-cf5c-4834-b123-4054ec5706a0-8932849019834265949-17-0.2" type="actor-car--2710368378241140358" depart="240.00" departLane="0" departPos="103.85" departSpeed="max" arrivalLane="0" arrivalPos="11.20">
        <route edges="-gneE12 gneE11 gneE13 gneE14 gneE15"/>
    </vehicle>
    <vehicle id="-flow-random-route-f0a877fe-defe-42f2-a739-f9058b3d4675-8932849019834265949-1-0.2" type="actor-car--2710368378241140358" depart="240.00" departLane="0" departPos="10.47" departSpeed="max" arrivalLane="0" arrivalPos="77.88">
        <route edges="-gneE11 gneE12 gneE8 gneE9 gneE2 gneE11 gneE13 gneE14 gneE15 -gneE12"/>
    </vehicle>
    <vehicle id="-flow-random-route-f0fe50a8-0621-4b83-9969-23220ac1d16b-8932849019834265949-21-0.2" type="actor-car--2710368378241140358" depart="240.00" departLane="1" departPos="52.50" departSpeed="max" arrivalLane="0" arrivalPos="47.39">