<?xml version="1.0" encoding="UTF-8"?>

<!-- generated on Fri Sep 18 07:22:15 2020 by Eclipse SUMO duarouter Version 1.6.0
<configuration xmlns:xsi="http://www.w3.org/2001/XMLSchema-instance" xsi:noNamespaceSchemaLocation="http://sumo.dlr.de/xsd/duarouterConfiguration.xsd">

    <input>
        <net-file value="dataset_public/mixed_loop/roundabout_its_b/map.net.xml"/>
        <route-files value="/tmp/tmp7caf5wgm/trips.trips.xml"/>
    </input>

    <output>
        <output-file value="dataset_public/mixed_loop/roundabout_its_b/traffic/30_patient_car.rou.xml"/>
        <alternatives-output value="dataset_public/mixed_loop/roundabout_its_b/traffic/30_patient_car.rou.alt.xml"/>
    </output>

    <processing>
        <unsorted-input value="true"/>
        <repair value="true"/>
    </processing>

    <report>
        <error-log value="/tmp/smarts/_duarouter_routing/traffic/30_patient_car.log"/>
        <no-step-log value="true"/>
    </report>

    <random_number>
        <seed value="42"/>
    </random_number>

</configuration>
-->

<routes xmlns:xsi="http://www.w3.org/2001/XMLSchema-instance" xsi:noNamespaceSchemaLocation="http://sumo.dlr.de/xsd/routes_file.xsd">
    <vType id="actor-car--8325956770770025756" minGap="2.50" speedFactor="normc(0.50,0.20,0.20,2.00)" vClass="passenger" impatience="0.50" lcCooperative="0.5" lcImpatience="0" jmDriveAfterYellowTime="1.0" accel="2.6" decel="4.5" sigma="0.5"/>
    <vehicle id="-flow-random-route-08d45735-4e2b-4a9d-854b-20e02c695202--7668561993442125181-8-0.0" type="actor-car--8325956770770025756" depart="0.00" departLane="0" departPos="0.84" departSpeed="max" arrivalLane="0" arrivalPos="13.03">
        <route edges="gneE82 gneE93 -gneE95 edge-north-NW -gneE92"/>
    </vehicle>
    <vehicle id="-flow-random-route-0e851164-9976-47db-9416-0f677e3172da--7668561993442125181-15-0.0" type="actor-car--8325956770770025756" depart="0.00" departLane="0" departPos="65.31" departSpeed="max" arrivalLane="0" arrivalPos="33.60">
        <route edges="gneE95 -gneE93 -gneE82 -gneE81 edge-east-EN gneE95 gneE94 gneE91 gneE92 edge-west-WS"/>
    </vehicle>
    <vehicle id="-flow-random-route-1519e96c-aa8a-421c-b6be-ced2bf22203e--7668561993442125181-21-0.0" type="actor-car--8325956770770025756" depart="0.00" departLane="1" departPos="15.43" departSpeed="max" arrivalLane="0" arrivalPos="47.80">
        <route edges="edge-east-EN gneE95 gneE94 gneE91 gneE92 edge-west-WS edge-south-SE edge-east-EN edge-north-NW -gneE92"/>
    </vehicle>
    <vehicle id="-flow-random-route-183229e4-c02d-435e-a86d-73a9d4917bb7--7668561993442125181-13-0.0" type="actor-car--8325956770770025756" depart="0.00" departLane="0" departPos="36.38" departSpeed="max" arrivalLane="0" arrivalPos="87.01">
        <route edges="-gneE91 -gneE94"/>
    </vehicle>
    <vehicle id="-flow-random-route-2129af4d-f87a-44ad-ae5a-db6a36f93f45--7668561993442125181-24-0.0" type="actor-car--8325956770770025756" depart="0.00" departLane="0" departPos="48.36" departSpeed="max" arrivalLane="0" arrivalPos="60.41">
        <route edges="gneE91 gneE92 edge-west-WS gneE96 gneE97 gneE98 -gneE82 -gneE81 edge-east-EN gneE95"/>
    </vehicle>
    <vehicle id="-flow-random-route-23d2832b-82fd-444d-bac1-90834c670d8c--7668561993442125181-23-0.0" type="actor-car--8325956770770025756" depart="0.00" departLane="0" departPos="49.50" departSpeed="max" arrivalLane="0" arrivalPos="81.65">
        <route edges="-gneE95 edge-north-NW -gneE92 -gneE91 -gneE94"/>
    </vehicle>
    <vehicle id="-flow-random-route-382ddffa-aaa0-4ca6-af2d-0c076526eb10--7668561993442125181-12-0.0" type="actor-car--8325956770770025756" depart="0.00" departLane="0" departPos="29.83" departSpeed="max" arrivalLane="0" arrivalPos="117.42">
        <route edges="edge-south-SE gneE81 gneE82 gneE93 gneE94 gneE91 gneE92 edge-west-WS gneE96 gneE97"/>
    </vehicle>
    <vehicle id="-flow-random-route-3fe83d1f-690a-440f-b81e-6c82f304b129--7668561993442125181-14-0.0" type="actor-car--8325956770770025756" depart="0.00" departLane="0" departPos="53.67" departSpeed="max" arrivalLane="1" arrivalPos="40.32">
        <route edges="-gneE91 -gneE94 -gneE93 -gneE82 -gneE81 edge-east-EN"/>
    </vehicle>
    <vehicle id="-flow-random-route-455cb4c2-a4a9-40a5-902e-6071257fd68b--7668561993442125181-27-0.0" type="actor-car--8325956770770025756" depart="0.00" departLane="0" departPos="71.04" departSpeed="max" arrivalLane="0" arrivalPos="42.44">
        <route edges="gneE98 gneE93 gneE94"/>
    </vehicle>
    <vehicle id="-flow-random-route-4bdd466e-f825-4aa2-9c59-25b9bbb29d94--7668561993442125181-5-0.0" type="actor-car--8325956770770025756" depart="0.00" departLane="0" departPos="95.35" departSpeed="max" arrivalLane="0" arrivalPos="93.70">
        <route edges="-gneE91 -gneE94"/>
    </vehicle>
    <vehicle id="-flow-random-route-54dcb307-b935-4087-8cb5-a625a7a531b9--7668561993442125181-20-0.0" type="actor-car--8325956770770025756" depart="0.00" departLane="1" departPos="9.87" departSpeed="max" arrivalLane="0" arrivalPos="70.42">
        <route edges="edge-north-NW edge-west-WS edge-south-SE gneE81 gneE82 gneE93 -gneE95 edge-north-NW -gneE92 -gneE91"/>
    </vehicle>
    <vehicle id="-flow-random-route-59cc1a56-5078-4b4f-b1a4-a3f97b404f58--7668561993442125181-28-0.0" type="actor-car--8325956770770025756" depart="0.00" departLane="0" departPos="12.00" departSpeed="max" arrivalLane="0" arrivalPos="2.18">
        <route edges="-gneE95 edge-north-NW edge-west-WS edge-south-SE gneE81 gneE82 gneE93 -gneE95 edge-north-NW -gneE92"/>
    </vehicle>
    <vehicle id="-flow-random-route-601f45ce-42da-4b52-be67-f43c018d82f1--7668561993442125181-1-0.0" type="actor-car--8325956770770025756" depart="0.00" departLane="0" departPos="25.55" departSpeed="max" arrivalLane="0" arrivalPos="81.07">
        <route edges="-gneE94 -gneE95 edge-north-NW edge-west-WS gneE96 gneE97 gneE98 gneE93 gneE94 gneE91"/>
    </vehicle>
    <vehicle id="-flow-random-route-637212da-9710-4424-8d8a-271f852a4caa--7668561993442125181-10-0.0" type="actor-car--8325956770770025756" depart="0.00" departLane="0" departPos="22.06" departSpeed="max" arrivalLane="0" arrivalPos="23.91">
        <route edges="-gneE82 -gneE81 edge-east-EN gneE95 gneE94 gneE91 gneE92 edge-west-WS edge-south-SE gneE81"/>
    </vehicle>
    <vehicle id="-flow-random-route-736e9277-6081-4bb3-938e-a0f626b3ba3b--7668561993442125181-9-0.0" type="actor-car--8325956770770025756" depart="0.00" departLane="0" departPos="42.41" departSpeed="max" arrivalLane="0" arrivalPos="14.36">
        <route edges="-gneE94 -gneE93 -gneE82 -gneE81 edge-east-EN edge-north-NW -gneE92 -gneE91 -gneE94 -gneE95"/>
    </vehicle>
    <vehicle id="-flow-random-route-7748637e-4df8-4127-9a85-622826017a78--7668561993442125181-19-0.0" type="actor-car--8325956770770025756" depart="0.00" departLane="0" departPos="88.80" departSpeed="max" arrivalLane="0" arrivalPos="24.10">
        <route edges="gneE97 gneE98 -gneE82 -gneE81 edge-east-EN gneE95 gneE94 gneE91 gneE92 edge-west-WS"/>
    </vehicle>
    <vehicle id="-flow-random-route-8b6e2cd3-c81e-4f8e-8f8c-1622a0c5aa2d--7668561993442125181-0-0.0" type="actor-car--8325956770770025756" depart="0.00" departLane="0" departPos="82.74" departSpeed="max" arrivalLane="0" arrivalPos="11.84">
        <route edges="gneE98 -gneE82"/>
    </vehicle>
    <vehicle id="-flow-random-route-8cc4c5e8-a292-4abf-8a1f-5fb40408a864--7668561993442125181-6-0.0" type="actor-car--8325956770770025756" depart="0.00" departLane="0" departPos="55.30" departSpeed="max" arrivalLane="0" arrivalPos="40.57">
        <route edges="edge-east-EN gneE95 -gneE93 -gneE82 -gneE81 edge-east-EN gneE95 gneE94 gneE91 gneE92"/>
    </vehicle>
    <vehicle id="-flow-random-route-9c913238-aabc-4ebd-8b09-e41ef6e36351--7668561993442125181-3-0.0" type="actor-car--8325956770770025756" depart="0.00" departLane="1" departPos="12.47" departSpeed="max" arrivalLane="0" arrivalPos="47.16">
        <route edges="edge-east-EN edge-north-NW -gneE92 -gneE91 -gneE94 -gneE93 -gneE82 -gneE81 edge-east-EN gneE95"/>
    </vehicle>
    <vehicle id="-flow-random-route-a1c8ca26-ccb7-48fc-8b3e-3423c284d1a8--7668561993442125181-26-0.0" type="actor-car--8325956770770025756" depart="0.00" departLane="1" departPos="20.84" departSpeed="max" arrivalLane="1" arrivalPos="39.52">
        <route edges="gneE96 gneE97 gneE98"/>
    </vehicle>
    <vehicle id="-flow-random-route-a69f6afe-9606-4c92-af8d-19c277fbf7e6--7668561993442125181-2-0.0" type="actor-car--8325956770770025756" depart="0.00" departLane="0" departPos="22.28" departSpeed="max" arrivalLane="0" arrivalPos="64.11">
        <route edges="gneE82 gneE93 gneE94 gneE91 gneE92 edge-west-WS"/>
    </vehicle>
    <vehicle id="-flow-random-route-ada294d8-9327-4fce-9f97-8839f656db57--7668561993442125181-11-0.0" type="actor-car--8325956770770025756" depart="0.00" departLane="0" departPos="40.48" departSpeed="max" arrivalLane="0" arrivalPos="12.69">
        <route edges="gneE91 gneE92 edge-west-WS gneE96 gneE97 gneE98 gneE93 -gneE95 edge-north-NW -gneE92"/>
    </vehicle>
    <vehicle id="-flow-random-route-b8e96f6f-9e1f-493b-877e-0b1989bd07c9--7668561993442125181-16-0.0" type="actor-car--8325956770770025756" depart="0.00" departLane="0" departPos="107.50" departSpeed="max" arrivalLane="0" arrivalPos="68.96">
        <route edges="gneE96 gneE97"/>
    </vehicle>
    <vehicle id="-flow-random-route-bbe850a3-edbe-4391-9c66-7930b2223340--7668561993442125181-29-0.0" type="actor-car--8325956770770025756" depart="0.00" departLane="0" departPos="45.14" departSpeed="max" arrivalLane="0" arrivalPos="41.88">
        <route edges="gneE82 gneE93"/>
    </vehicle>
    <vehicle id="-flow-random-route-bc38a454-7d24-4d71-b653-3e139e89d330--7668561993442125181-17-0.0" type="actor-car--8325956770770025756" depart="0.00" departLane="0" departPos="27.93" departSpeed="max" arrivalLane="0" arrivalPos="5.24">
        <route edges="-gneE91 -gneE94"/>
    </vehicle>
    <vehicle id="-flow-random-route-d201febd-bdf0-4e9e-9676-9f45e1977496--7668561993442125181-7-0.0" type="actor-car--8325956770770025756" depart="0.00" departLane="0" departPos="50.01" departSpeed="max" arrivalLane="0" arrivalPos="27.74">
        <route edges="-gneE92 -gneE91 -gneE94 -gneE95 edge-north-NW -gneE92 -gneE91 -gneE94 -gneE93 -gneE82"/>
    </vehicle>
    <vehicle id="-flow-random-route-d79f99da-4261-43e2-a590-7453f8125614--7668561993442125181-25-0.0" type="actor-car--8325956770770025756" depart="0.00" departLane="0" departPos="67.74" departSpeed="max" arrivalLane="0" arrivalPos="1.57">
        <route edges="gneE82 gneE93 -gneE95 edge-north-NW edge-west-WS gneE96 gneE97 gneE98 -gneE82 -gneE81"/>
    </vehicle>
    <vehicle id="-flow-random-route-d99e22bf-ba06-441c-b3e6-a658bfdab50b--7668561993442125181-22-0.0" type="actor-car--8325956770770025756" depart="0.00" departLane="0" departPos="6.90" departSpeed="max" arrivalLane="0" arrivalPos="16.24">
        <route edges="gneE81 gneE82 gneE93 -gneE95 edge-north-NW -gneE92 -gneE91 -gneE94 -gneE93 -gneE82"/>
    </vehicle>
    <vehicle id="-flow-random-route-da74cae6-dbe7-4f9a-b1b8-a99571760d43--7668561993442125181-18-0.0" type="actor-car--8325956770770025756" depart="0.00" departLane="0" departPos="30.87" departSpeed="max" arrivalLane="0" arrivalPos="48.51">
        <route edges="edge-north-NW -gneE92 -gneE91 -gneE94 -gneE95 edge-north-NW edge-west-WS gneE96 gneE97 gneE98"/>
    </vehicle>
    <vehicle id="-flow-random-route-dcc629cb-5d90-4975-a08e-f0d276a5debf--7668561993442125181-4-0.0" type="actor-car--8325956770770025756" depart="0.00" departLane="0" departPos="70.51" departSpeed="max" arrivalLane="0" arrivalPos="62.82">
        <route edges="-gneE94 -gneE93"/>
    </vehicle>
    <vehicle id="-flow-random-route-08d45735-4e2b-4a9d-854b-20e02c695202--7668561993442125181-8-0.1" type="actor-car--8325956770770025756" depart="120.00" departLane="0" departPos="0.84" departSpeed="max" arrivalLane="0" arrivalPos="13.03">
        <route edges="gneE82 gneE93 -gneE95 edge-north-NW -gneE92"/>
    </vehicle>
    <vehicle id="-flow-random-route-0e851164-9976-47db-9416-0f677e3172da--7668561993442125181-15-0.1" type="actor-car--8325956770770025756" depart="120.00" departLane="0" departPos="65.31" departSpeed="max" arrivalLane="0" arrivalPos="33.60">
        <route edges="gneE95 -gneE93 -gneE82 -gneE81 edge-east-EN gneE95 gneE94 gneE91 gneE92 edge-west-WS"/>
    </vehicle>
    <vehicle id="-flow-random-route-1519e96c-aa8a-421c-b6be-ced2bf22203e--7668561993442125181-21-0.1" type="actor-car--8325956770770025756" depart="120.00" departLane="1" departPos="15.43" departSpeed="max" arrivalLane="0" arrivalPos="47.80">
        <route edges="edge-east-EN gneE95 gneE94 gneE91 gneE92 edge-west-WS edge-south-SE edge-east-EN edge-north-NW -gneE92"/>
    </vehicle>
    <vehicle id="-flow-random-route-183229e4-c02d-435e-a86d-73a9d4917bb7--7668561993442125181-13-0.1" type="actor-car--8325956770770025756" depart="120.00" departLane="0" departPos="36.38" departSpeed="max" arrivalLane="0" arrivalPos="87.01">
        <route edges="-gneE91 -gneE94"/>
    </vehicle>
    <vehicle id="-flow-random-route-2129af4d-f87a-44ad-ae5a-db6a36f93f45--7668561993442125181-24-0.1" type="actor-car--8325956770770025756" depart="120.00" departLane="0" departPos="48.36" departSpeed="max" arrivalLane="0" arrivalPos="60.41">
        <route edges="gneE91 gneE92 edge-west-WS gneE96 gneE97 gneE98 -gneE82 -gneE81 edge-east-EN gneE95"/>
    </vehicle>
    <vehicle id="-flow-random-route-23d2832b-82fd-444d-bac1-90834c670d8c--7668561993442125181-23-0.1" type="actor-car--8325956770770025756" depart="120.00" departLane="0" departPos="49.50" departSpeed="max" arrivalLane="0" arrivalPos="81.65">
        <route edges="-gneE95 edge-north-NW -gneE92 -gneE91 -gneE94"/>
    </vehicle>
    <vehicle id="-flow-random-route-382ddffa-aaa0-4ca6-af2d-0c076526eb10--7668561993442125181-12-0.1" type="actor-car--8325956770770025756" depart="120.00" departLane="0" departPos="29.83" departSpeed="max" arrivalLane="0" arrivalPos="117.42">
        <route edges="edge-south-SE gneE81 gneE82 gneE93 gneE94 gneE91 gneE92 edge-west-WS gneE96 gneE97"/>
    </vehicle>
    <vehicle id="-flow-random-route-3fe83d1f-690a-440f-b81e-6c82f304b129--7668561993442125181-14-0.1" type="actor-car--8325956770770025756" depart="120.00" departLane="0" departPos="53.67" departSpeed="max" arrivalLane="1" arrivalPos="40.32">
        <route edges="-gneE91 -gneE94 -gneE93 -gneE82 -gneE81 edge-east-EN"/>
    </vehicle>
    <vehicle id="-flow-random-route-455cb4c2-a4a9-40a5-902e-6071257fd68b--7668561993442125181-27-0.1" type="actor-car--8325956770770025756" depart="120.00" departLane="0" departPos="71.04" departSpeed="max" arrivalLane="0" arrivalPos="42.44">
        <route edges="gneE98 gneE93 gneE94"/>
    </vehicle>
    <vehicle id="-flow-random-route-4bdd466e-f825-4aa2-9c59-25b9bbb29d94--7668561993442125181-5-0.1" type="actor-car--8325956770770025756" depart="120.00" departLane="0" departPos="95.35" departSpeed="max" arrivalLane="0" arrivalPos="93.70">
        <route edges="-gneE91 -gneE94"/>
    </vehicle>
    <vehicle id="-flow-random-route-54dcb307-b935-4087-8cb5-a625a7a531b9--7668561993442125181-20-0.1" type="actor-car--8325956770770025756" depart="120.00" departLane="1" departPos="9.87" departSpeed="max" arrivalLane="0" arrivalPos="70.42">
        <route edges="edge-north-NW edge-west-WS edge-south-SE gneE81 gneE82 gneE93 -gneE95 edge-north-NW -gneE92 -gneE91"/>
    </vehicle>
    <vehicle id="-flow-random-route-59cc1a56-5078-4b4f-b1a4-a3f97b404f58--7668561993442125181-28-0.1" type="actor-car--8325956770770025756" depart="120.00" departLane="0" departPos="12.00" departSpeed="max" arrivalLane="0" arrivalPos="2.18">
        <route edges="-gneE95 edge-north-NW edge-west-WS edge-south-SE gneE81 gneE82 gneE93 -gneE95 edge-north-NW -gneE92"/>
    </vehicle>
    <vehicle id="-flow-random-route-601f45ce-42da-4b52-be67-f43c018d82f1--7668561993442125181-1-0.1" type="actor-car--8325956770770025756" depart="120.00" departLane="0" departPos="25.55" departSpeed="max" arrivalLane="0" arrivalPos="81.07">
        <route edges="-gneE94 -gneE95 edge-north-NW edge-west-WS gneE96 gneE97 gneE98 gneE93 gneE94 gneE91"/>
    </vehicle>
    <vehicle id="-flow-random-route-637212da-9710-4424-8d8a-271f852a4caa--7668561993442125181-10-0.1" type="actor-car--8325956770770025756" depart="120.00" departLane="0" departPos="22.06" departSpeed="max" arrivalLane="0" arrivalPos="23.91">
        <route edges="-gneE82 -gneE81 edge-east-EN gneE95 gneE94 gneE91 gneE92 edge-west-WS edge-south-SE gneE81"/>
    </vehicle>
    <vehicle id="-flow-random-route-736e9277-6081-4bb3-938e-a0f626b3ba3b--7668561993442125181-9-0.1" type="actor-car--8325956770770025756" depart="120.00" departLane="0" departPos="42.41" departSpeed="max" arrivalLane="0" arrivalPos="14.36">
        <route edges="-gneE94 -gneE93 -gneE82 -gneE81 edge-east-EN edge-north-NW -gneE92 -gneE91 -gneE94 -gneE95"/>
    </vehicle>
    <vehicle id="-flow-random-route-7748637e-4df8-4127-9a85-622826017a78--7668561993442125181-19-0.1" type="actor-car--8325956770770025756" depart="120.00" departLane="0" departPos="88.80" departSpeed="max" arrivalLane="0" arrivalPos="24.10">
        <route edges="gneE97 gneE98 -gneE82 -gneE81 edge-east-EN gneE95 gneE94 gneE91 gneE92 edge-west-WS"/>
    </vehicle>
    <vehicle id="-flow-random-route-8b6e2cd3-c81e-4f8e-8f8c-1622a0c5aa2d--7668561993442125181-0-0.1" type="actor-car--8325956770770025756" depart="120.00" departLane="0" departPos="82.74" departSpeed="max" arrivalLane="0" arrivalPos="11.84">
        <route edges="gneE98 -gneE82"/>
    </vehicle>
    <vehicle id="-flow-random-route-8cc4c5e8-a292-4abf-8a1f-5fb40408a864--7668561993442125181-6-0.1" type="actor-car--8325956770770025756" depart="120.00" departLane="0" departPos="55.30" departSpeed="max" arrivalLane="0" arrivalPos="40.57">
        <route edges="edge-east-EN gneE95 -gneE93 -gneE82 -gneE81 edge-east-EN gneE95 gneE94 gneE91 gneE92"/>
    </vehicle>
    <vehicle id="-flow-random-route-9c913238-aabc-4ebd-8b09-e41ef6e36351--7668561993442125181-3-0.1" type="actor-car--8325956770770025756" depart="120.00" departLane="1" departPos="12.47" departSpeed="max" arrivalLane="0" arrivalPos="47.16">
        <route edges="edge-east-EN edge-north-NW -gneE92 -gneE91 -gneE94 -gneE93 -gneE82 -gneE81 edge-east-EN gneE95"/>
    </vehicle>
    <vehicle id="-flow-random-route-a1c8ca26-ccb7-48fc-8b3e-3423c284d1a8--7668561993442125181-26-0.1" type="actor-car--8325956770770025756" depart="120.00" departLane="1" departPos="20.84" departSpeed="max" arrivalLane="1" arrivalPos="39.52">
        <route edges="gneE96 gneE97 gneE98"/>
    </vehicle>
    <vehicle id="-flow-random-route-a69f6afe-9606-4c92-af8d-19c277fbf7e6--7668561993442125181-2-0.1" type="actor-car--8325956770770025756" depart="120.00" departLane="0" departPos="22.28" departSpeed="max" arrivalLane="0" arrivalPos="64.11">
        <route edges="gneE82 gneE93 gneE94 gneE91 gneE92 edge-west-WS"/>
    </vehicle>
    <vehicle id="-flow-random-route-ada294d8-9327-4fce-9f97-8839f656db57--7668561993442125181-11-0.1" type="actor-car--8325956770770025756" depart="120.00" departLane="0" departPos="40.48" departSpeed="max" arrivalLane="0" arrivalPos="12.69">
        <route edges="gneE91 gneE92 edge-west-WS gneE96 gneE97 gneE98 gneE93 -gneE95 edge-north-NW -gneE92"/>
    </vehicle>
    <vehicle id="-flow-random-route-b8e96f6f-9e1f-493b-877e-0b1989bd07c9--7668561993442125181-16-0.1" type="actor-car--8325956770770025756" depart="120.00" departLane="0" departPos="107.50" departSpeed="max" arrivalLane="0" arrivalPos="68.96">
        <route edges="gneE96 gneE97"/>
    </vehicle>
    <vehicle id="-flow-random-route-bbe850a3-edbe-4391-9c66-7930b2223340--7668561993442125181-29-0.1" type="actor-car--8325956770770025756" depart="120.00" departLane="0" departPos="45.14" departSpeed="max" arrivalLane="0" arrivalPos="41.88">
        <route edges="gneE82 gneE93"/>
    </vehicle>
    <vehicle id="-flow-random-route-bc38a454-7d24-4d71-b653-3e139e89d330--7668561993442125181-17-0.1" type="actor-car--8325956770770025756" depart="120.00" departLane="0" departPos="27.93" departSpeed="max" arrivalLane="0" arrivalPos="5.24">
        <route edges="-gneE91 -gneE94"/>
    </vehicle>
    <vehicle id="-flow-random-route-d201febd-bdf0-4e9e-9676-9f45e1977496--7668561993442125181-7-0.1" type="actor-car--8325956770770025756" depart="120.00" departLane="0" departPos="50.01" departSpeed="max" arrivalLane="0" arrivalPos="27.74">
        <route edges="-gneE92 -gneE91 -gneE94 -gneE95 edge-north-NW -gneE92 -gneE91 -gneE94 -gneE93 -gneE82"/>
    </vehicle>
    <vehicle id="-flow-random-route-d79f99da-4261-43e2-a590-7453f8125614--7668561993442125181-25-0.1" type="actor-car--8325956770770025756" depart="120.00" departLane="0" departPos="67.74" departSpeed="max" arrivalLane="0" arrivalPos="1.57">
        <route edges="gneE82 gneE93 -gneE95 edge-north-NW edge-west-WS gneE96 gneE97 gneE98 -gneE82 -gneE81"/>
    </vehicle>
    <vehicle id="-flow-random-route-d99e22bf-ba06-441c-b3e6-a658bfdab50b--7668561993442125181-22-0.1" type="actor-car--8325956770770025756" depart="120.00" departLane="0" departPos="6.90" departSpeed="max" arrivalLane="0" arrivalPos="16.24">
        <route edges="gneE81 gneE82 gneE93 -gneE95 edge-north-NW -gneE92 -gneE91 -gneE94 -gneE93 -gneE82"/>
    </vehicle>
    <vehicle id="-flow-random-route-da74cae6-dbe7-4f9a-b1b8-a99571760d43--7668561993442125181-18-0.1" type="actor-car--8325956770770025756" depart="120.00" departLane="0" departPos="30.87" departSpeed="max" arrivalLane="0" arrivalPos="48.51">
        <route edges="edge-north-NW -gneE92 -gneE91 -gneE94 -gneE95 edge-north-NW edge-west-WS gneE96 gneE97 gneE98"/>
    </vehicle>
    <vehicle id="-flow-random-route-dcc629cb-5d90-4975-a08e-f0d276a5debf--7668561993442125181-4-0.1" type="actor-car--8325956770770025756" depart="120.00" departLane="0" departPos="70.51" departSpeed="max" arrivalLane="0" arrivalPos="62.82">
        <route edges="-gneE94 -gneE93"/>
    </vehicle>
    <vehicle id="-flow-random-route-08d45735-4e2b-4a9d-854b-20e02c695202--7668561993442125181-8-0.2" type="actor-car--8325956770770025756" depart="240.00" departLane="0" departPos="0.84" departSpeed="max" arrivalLane="0" arrivalPos="13.03">
        <route edges="gneE82 gneE93 -gneE95 edge-north-NW -gneE92"/>
    </vehicle>
    <vehicle id="-flow-random-route-0e851164-9976-47db-9416-0f677e3172da--7668561993442125181-15-0.2" type="actor-car--8325956770770025756" depart="240.00" departLane="0" departPos="65.31" departSpeed="max" arrivalLane="0" arrivalPos="33.60">
        <route edges="gneE95 -gneE93 -gneE82 -gneE81 edge-east-EN gneE95 gneE94 gneE91 gneE92 edge-west-WS"/>
    </vehicle>
    <vehicle id="-flow-random-route-1519e96c-aa8a-421c-b6be-ced2bf22203e--7668561993442125181-21-0.2" type="actor-car--8325956770770025756" depart="240.00" departLane="1" departPos="15.43" departSpeed="max" arrivalLane="0" arrivalPos="47.80">
        <route edges="edge-east-EN gneE95 gneE94 gneE91 gneE92 edge-west-WS edge-south-SE edge-east-EN edge-north-NW -gneE92"/>
    </vehicle>
    <vehicle id="-flow-random-route-183229e4-c02d-435e-a86d-73a9d4917bb7--7668561993442125181-13-0.2" type="actor-car--8325956770770025756" depart="240.00" departLane="0" departPos="36.38" departSpeed="max" arrivalLane="0" arrivalPos="87.01">
        <route edges="-gneE91 -gneE94"/>
    </vehicle>
    <vehicle id="-flow-random-route-2129af4d-f87a-44ad-ae5a-db6a36f93f45--7668561993442125181-24-0.2" type="actor-car--8325956770770025756" depart="240.00" departLane="0" departPos="48.36" departSpeed="max" arrivalLane="0" arrivalPos="60.41">
        <route edges="gneE91 gneE92 edge-west-WS gneE96 gneE97 gneE98 -gneE82 -gneE81 edge-east-EN gneE95"/>
    </vehicle>
    <vehicle id="-flow-random-route-23d2832b-82fd-444d-bac1-90834c670d8c--7668561993442125181-23-0.2" type="actor-car--8325956770770025756" depart="240.00" departLane="0" departPos="49.50" departSpeed="max" arrivalLane="0" arrivalPos="81.65">
        <route edges="-gneE95 edge-north-NW -gneE92 -gneE91 -gneE94"/>
    </vehicle>
    <vehicle id="-flow-random-route-382ddffa-aaa0-4ca6-af2d-0c076526eb10--7668561993442125181-12-0.2" type="actor-car--8325956770770025756" depart="240.00" departLane="0" departPos="29.83" departSpeed="max" arrivalLane="0" arrivalPos="117.42">
        <route edges="edge-south-SE gneE81 gneE82 gneE93 gneE94 gneE91 gneE92 edge-west-WS gneE96 gneE97"/>
    </vehicle>
    <vehicle id="-flow-random-route-3fe83d1f-690a-440f-b81e-6c82f304b129--7668561993442125181-14-0.2" type="actor-car--8325956770770025756" depart="240.00" departLane="0" departPos="53.67" departSpeed="max" arrivalLane="1" arrivalPos="40.32">
        <route edges="-gneE91 -gneE94 -gneE93 -gneE82 -gneE81 edge-east-EN"/>
    </vehicle>
    <vehicle id="-flow-random-route-455cb4c2-a4a9-40a5-902e-6071257fd68b--7668561993442125181-27-0.2" type="actor-car--8325956770770025756" depart="240.00" departLane="0" departPos="71.04" departSpeed="max" arrivalLane="0" arrivalPos="42.44">
        <route edges="gneE98 gneE93 gneE94"/>
    </vehicle>
    <vehicle id="-flow-random-route-4bdd466e-f825-4aa2-9c59-25b9bbb29d94--7668561993442125181-5-0.2" type="actor-car--8325956770770025756" depart="240.00" departLane="0" departPos="95.35" departSpeed="max" arrivalLane="0" arrivalPos="93.70">
        <route edges="-gneE91 -gneE94"/>
    </vehicle>
    <vehicle id="-flow-random-route-54dcb307-b935-4087-8cb5-a625a7a531b9--7668561993442125181-20-0.2" type="actor-car--8325956770770025756" depart="240.00" departLane="1" departPos="9.87" departSpeed="max" arrivalLane="0" arrivalPos="70.42">
        <route edges="edge-north-NW edge-west-WS edge-south-SE gneE81 gneE82 gneE93 -gneE95 edge-north-NW -gneE92 -gneE91"/>
    </vehicle>
    <vehicle id="-flow-random-route-59cc1a56-5078-4b4f-b1a4-a3f97b404f58--7668561993442125181-28-0.2" type="actor-car--8325956770770025756" depart="240.00" departLane="0" departPos="12.00" departSpeed="max" arrivalLane="0" arrivalPos="2.18">
        <route edges="-gneE95 edge-north-NW edge-west-WS edge-south-SE gneE81 gneE82 gneE93 -gneE95 edge-north-NW -gneE92"/>
    </vehicle>
    <vehicle id="-flow-random-route-601f45ce-42da-4b52-be67-f43c018d82f1--7668561993442125181-1-0.2" type="actor-car--8325956770770025756" depart="240.00" departLane="0" departPos="25.55" departSpeed="max" arrivalLane="0" arrivalPos="81.07">
        <route edges="-gneE94 -gneE95 edge-north-NW edge-west-WS gneE96 gneE97 gneE98 gneE93 gneE94 gneE91"/>
    </vehicle>
    <vehicle id="-flow-random-route-637212da-9710-4424-8d8a-271f852a4caa--7668561993442125181-10-0.2" type="actor-car--8325956770770025756" depart="240.00" departLane="0" departPos="22.06" departSpeed="max" arrivalLane="0" arrivalPos="23.91">
        <route edges="-gneE82 -gneE81 edge-east-EN gneE95 gneE94 gneE91 gneE92 edge-west-WS edge-south-SE gneE81"/>
    </vehicle>
    <vehicle id="-flow-random-route-736e9277-6081-4bb3-938e-a0f626b3ba3b--7668561993442125181-9-0.2" type="actor-car--8325956770770025756" depart="240.00" departLane="0" departPos="42.41" departSpeed="max" arrivalLane="0" arrivalPos="14.36">
        <route edges="-gneE94 -gneE93 -gneE82 -gneE81 edge-east-EN edge-north-NW -gneE92 -gneE91 -gneE94 -gneE95"/>
    </vehicle>
    <vehicle id="-flow-random-route-7748637e-4df8-4127-9a85-622826017a78--7668561993442125181-19-0.2" type="actor-car--8325956770770025756" depart="240.00" departLane="0" departPos="88.80" departSpeed="max" arrivalLane="0" arrivalPos="24.10">
        <route edges="gneE97 gneE98 -gneE82 -gneE81 edge-east-EN gneE95 gneE94 gneE91 gneE92 edge-west-WS"/>
    </vehicle>
    <vehicle id="-flow-random-route-8b6e2cd3-c81e-4f8e-8f8c-1622a0c5aa2d--7668561993442125181-0-0.2" type="actor-car--8325956770770025756" depart="240.00" departLane="0" departPos="82.74" departSpeed="max" arrivalLane="0" arrivalPos="11.84">
        <route edges="gneE98 -gneE82"/>
    </vehicle>
    <vehicle id="-flow-random-route-8cc4c5e8-a292-4abf-8a1f-5fb40408a864--7668561993442125181-6-0.2" type="actor-car--8325956770770025756" depart="240.00" departLane="0" departPos="55.30" departSpeed="max" arrivalLane="0" arrivalPos="40.57">
        <route edges="edge-east-EN gneE95 -gneE93 -gneE82 -gneE81 edge-east-EN gneE95 gneE94 gneE91 gneE92"/>
    </vehicle>
    <vehicle id="-flow-random-route-9c913238-aabc-4ebd-8b09-e41ef6e36351--7668561993442125181-3-0.2" type="actor-car--8325956770770025756" depart="240.00" departLane="1" departPos="12.47" departSpeed="max" arrivalLane="0" arrivalPos="47.16">
        <route edges="edge-east-EN edge-north-NW -gneE92 -gneE91 -gneE94 -gneE93 -gneE82 -gneE81 edge-east-EN gneE95"/>
    </vehicle>
    <vehicle id="-flow-random-route-a1c8ca26-ccb7-48fc-8b3e-3423c284d1a8--7668561993442125181-26-0.2" type="actor-car--8325956770770025756" depart="240.00" departLane="1" departPos="20.84" departSpeed="max" arrivalLane="1" arrivalPos="39.52">
        <route edges="gneE96 gneE97 gneE98"/>
    </vehicle>
    <vehicle id="-flow-random-route-a69f6afe-9606-4c92-af8d-19c277fbf7e6--7668561993442125181-2-0.2" type="actor-car--8325956770770025756" depart="240.00" departLane="0" departPos="22.28" departSpeed="max" arrivalLane="0" arrivalPos="64.11">
        <route edges="gneE82 gneE93 gneE94 gneE91 gneE92 edge-west-WS"/>
    </vehicle>
    <vehicle id="-flow-random-route-ada294d8-9327-4fce-9f97-8839f656db57--7668561993442125181-11-0.2" type="actor-car--8325956770770025756" depart="240.00" departLane="0" departPos="40.48" departSpeed="max" arrivalLane="0" arrivalPos="12.69">
        <route edges="gneE91 gneE92 edge-west-WS gneE96 gneE97 gneE98 gneE93 -gneE95 edge-north-NW -gneE92"/>
    </vehicle>
    <vehicle id="-flow-random-route-b8e96f6f-9e1f-493b-877e-0b1989bd07c9--7668561993442125181-16-0.2" type="actor-car--8325956770770025756" depart="240.00" departLane="0" departPos="107.50" departSpeed="max" arrivalLane="0" arrivalPos="68.96">
        <route edges="gneE96 gneE97"/>