<?xml version="1.0" encoding="UTF-8"?>

<!-- generated on Fri Sep 18 07:11:21 2020 by Eclipse SUMO duarouter Version 1.6.0
<configuration xmlns:xsi="http://www.w3.org/2001/XMLSchema-instance" xsi:noNamespaceSchemaLocation="http://sumo.dlr.de/xsd/duarouterConfiguration.xsd">

    <input>
        <net-file value="dataset_public/merge_loop/merge_d/map.net.xml"/>
        <route-files value="/tmp/tmp5_gzeecn/trips.trips.xml"/>
    </input>

    <output>
        <output-file value="dataset_public/merge_loop/merge_d/traffic/30_patient_car.rou.xml"/>
        <alternatives-output value="dataset_public/merge_loop/merge_d/traffic/30_patient_car.rou.alt.xml"/>
    </output>

    <processing>
        <unsorted-input value="true"/>
        <repair value="true"/>
    </processing>

    <report>
        <error-log value="/tmp/smarts/_duarouter_routing/traffic/30_patient_car.log"/>
        <no-step-log value="true"/>
    </report>

    <random_number>
        <seed value="42"/>
    </random_number>

</configuration>
-->

<routes xmlns:xsi="http://www.w3.org/2001/XMLSchema-instance" xsi:noNamespaceSchemaLocation="http://sumo.dlr.de/xsd/routes_file.xsd">
    <vType id="actor-car--3264491230996599063" minGap="2.50" speedFactor="normc(0.50,0.20,0.20,2.00)" vClass="passenger" impatience="0.50" lcCooperative="0.5" lcImpatience="0" jmDriveAfterYellowTime="1.0" accel="2.6" decel="4.5" sigma="0.5"/>
    <vehicle id="-flow-random-route-0eacbd02-4848-4c06-a294-dd706ff603a9--6430998886461770737-22-0.0" type="actor-car--3264491230996599063" depart="0.00" departLane="1" departPos="101.44" departSpeed="max" arrivalLane="0" arrivalPos="32.83">
        <route edges="gneE1.12 gneE5 gneE7 gneE7.117 gneE7.141 gneE8 gneE9 gneE2 gneE1 gneE16"/>
    </vehicle>
    <vehicle id="-flow-random-route-1162ac90-ebe1-4a57-9a98-5f9c4b6e88c0--6430998886461770737-0-0.0" type="actor-car--3264491230996599063" depart="0.00" departLane="1" departPos="32.90" departSpeed="max" arrivalLane="1" arrivalPos="94.52">
        <route edges="gneE1.12 gneE5 gneE7 gneE7.117 gneE10"/>
    </vehicle>
    <vehicle id="-flow-random-route-1c3c40a5-ca81-464e-98db-5c70a9cd733e--6430998886461770737-21-0.0" type="actor-car--3264491230996599063" depart="0.00" departLane="0" departPos="63.04" departSpeed="max" arrivalLane="0" arrivalPos="19.94">
        <route edges="gneE7.141 gneE8 gneE9 gneE2 gneE1 gneE1.12 gneE5 gneE7 gneE7.117 gneE10"/>
    </vehicle>
    <vehicle id="-flow-random-route-270e0879-f5e8-407e-b0dc-aa022342faf4--6430998886461770737-25-0.0" type="actor-car--3264491230996599063" depart="0.00" departLane="1" departPos="57.92" departSpeed="max" arrivalLane="1" arrivalPos="35.13">
        <route edges="gneE7.117 gneE10 gneE3 gneE1 gneE16 gneE7.117 gneE7.141 gneE8 gneE9 gneE2"/>
    </vehicle>
    <vehicle id="-flow-random-route-2d048dbc-b2bd-42fa-b392-694ee409a43e--6430998886461770737-14-0.0" type="actor-car--3264491230996599063" depart="0.00" departLane="0" departPos="142.73" departSpeed="max" arrivalLane="1" arrivalPos="25.42">
        <route edges="gneE8 gneE9 gneE2"/>
    </vehicle>
    <vehicle id="-flow-random-route-30089d3d-7809-4840-a036-6ee152af55c4--6430998886461770737-19-0.0" type="actor-car--3264491230996599063" depart="0.00" departLane="0" departPos="44.91" departSpeed="max" arrivalLane="0" arrivalPos="71.29">
        <route edges="gneE2 gneE1 gneE16"/>
    </vehicle>
    <vehicle id="-flow-random-route-34e8f344-3de7-4af8-ac42-ba15364b3a0a--6430998886461770737-1-0.0" type="actor-car--3264491230996599063" depart="0.00" departLane="0" departPos="32.02" departSpeed="max" arrivalLane="0" arrivalPos="63.63">
        <route edges="gneE2 gneE1 gneE16 gneE7.117 gneE10"/>
    </vehicle>
    <vehicle id="-flow-random-route-388641eb-09f9-4531-9679-0557b78944c3--6430998886461770737-28-0.0" type="actor-car--3264491230996599063" depart="0.00" departLane="1" departPos="139.88" departSpeed="max" arrivalLane="0" arrivalPos="27.74">
        <route edges="gneE7.117 gneE10 gneE3"/>
    </vehicle>
    <vehicle id="-flow-random-route-3894fb5d-d311-4d14-9541-98b447cbf367--6430998886461770737-23-0.0" type="actor-car--3264491230996599063" depart="0.00" departLane="0" departPos="0.98" departSpeed="max" arrivalLane="0" arrivalPos="31.10">
        <route edges="gneE5 gneE7 gneE7.117 gneE7.141 gneE8 gneE9 gneE2 gneE1 gneE1.12 gneE5"/>
    </vehicle>
    <vehicle id="-flow-random-route-415e2fe1-bc46-40f8-8163-19b9b7388b47--6430998886461770737-16-0.0" type="actor-car--3264491230996599063" depart="0.00" departLane="0" departPos="110.65" departSpeed="max" arrivalLane="1" arrivalPos="10.24">
        <route edges="gneE8 gneE9 gneE2"/>
    </vehicle>
    <vehicle id="-flow-random-route-5f90c192-0ff9-4ca9-b892-cc633c792ef2--6430998886461770737-24-0.0" type="actor-car--3264491230996599063" depart="0.00" departLane="0" departPos="22.38" departSpeed="max" arrivalLane="0" arrivalPos="75.84">
        <route edges="gneE7 gneE7.117 gneE10 gneE3 gneE1 gneE16 gneE7.117 gneE7.141 gneE8 gneE9"/>
    </vehicle>
    <vehicle id="-flow-random-route-6e49f0b1-facb-43a3-9a43-78a828406d46--6430998886461770737-9-0.0" type="actor-car--3264491230996599063" depart="0.00" departLane="0" departPos="10.39" departSpeed="max" arrivalLane="0" arrivalPos="19.22">
        <route edges="gneE3 gneE1 gneE1.12 gneE5 gneE7 gneE7.117 gneE10 gneE3 gneE1 gneE16"/>
    </vehicle>
    <vehicle id="-flow-random-route-71748d54-bcfb-472b-9f88-53db6bb95d72--6430998886461770737-5-0.0" type="actor-car--3264491230996599063" depart="0.00" departLane="0" departPos="127.37" departSpeed="max" arrivalLane="0" arrivalPos="60.15">
        <route edges="gneE16 gneE7.117 gneE10 gneE3 gneE1 gneE16 gneE7.117 gneE7.141 gneE8 gneE9"/>
    </vehicle>
    <vehicle id="-flow-random-route-7bece382-86de-481a-a99c-bcb2c7bb4a7c--6430998886461770737-8-0.0" type="actor-car--3264491230996599063" depart="0.00" departLane="0" departPos="3.52" departSpeed="max" arrivalLane="0" arrivalPos="170.89">
        <route edges="gneE7.117 gneE7.141 gneE8"/>
    </vehicle>
    <vehicle id="-flow-random-route-7ef5816b-dd24-431b-88a8-5318d4a37a7c--6430998886461770737-10-0.0" type="actor-car--3264491230996599063" depart="0.00" departLane="0" departPos="52.27" departSpeed="max" arrivalLane="1" arrivalPos="28.92">
        <route edges="gneE5 gneE7 gneE7.117 gneE10 gneE3"/>
    </vehicle>
    <vehicle id="-flow-random-route-8839019e-5a30-4016-9882-e55c694ea1ef--6430998886461770737-2-0.0" type="actor-car--3264491230996599063" depart="0.00" departLane="1" departPos="86.24" departSpeed="max" arrivalLane="0" arrivalPos="123.11">
        <route edges="gneE1.12 gneE5 gneE7 gneE7.117 gneE7.141 gneE8 gneE9 gneE2 gneE1 gneE16"/>
    </vehicle>
    <vehicle id="-flow-random-route-8eb6b2d5-b9a2-4669-9015-216df9d78c5e--6430998886461770737-27-0.0" type="actor-car--3264491230996599063" depart="0.00" departLane="0" departPos="63.76" departSpeed="max" arrivalLane="1" arrivalPos="49.06">
        <route edges="gneE16 gneE7.117 gneE7.141 gneE8 gneE9 gneE2 gneE1 gneE1.12 gneE5 gneE7"/>
    </vehicle>
    <vehicle id="-flow-random-route-96ecc586-61bb-42dc-9350-88491337b3d9--6430998886461770737-20-0.0" type="actor-car--3264491230996599063" depart="0.00" departLane="0" departPos="80.76" departSpeed="max" arrivalLane="1" arrivalPos="8.62">
        <route edges="gneE9 gneE2 gneE1 gneE1.12 gneE5 gneE7 gneE7.117 gneE7.141 gneE8 gneE9"/>
    </vehicle>
    <vehicle id="-flow-random-route-b1f54f49-cf5c-4328-bf77-432cecec475d--6430998886461770737-26-0.0" type="actor-car--3264491230996599063" depart="0.00" departLane="0" departPos="25.80" departSpeed="max" arrivalLane="0" arrivalPos="131.61">
        <route edges="gneE5 gneE7 gneE7.117 gneE7.141 gneE8 gneE9 gneE2 gneE1 gneE1.12 gneE5"/>
    </vehicle>
    <vehicle id="-flow-random-route-bdf669b5-6b6e-4e7e-b5a7-f71ce7e02b18--6430998886461770737-29-0.0" type="actor-car--3264491230996599063" depart="0.00" departLane="1" departPos="78.44" departSpeed="max" arrivalLane="0" arrivalPos="6.23">
        <route edges="gneE5 gneE7 gneE7.117 gneE7.141 gneE8 gneE9 gneE2 gneE1 gneE1.12 gneE5"/>
    </vehicle>
    <vehicle id="-flow-random-route-c01ecf2f-e7ea-4c7c-951b-c42c760dceca--6430998886461770737-15-0.0" type="actor-car--3264491230996599063" depart="0.00" departLane="1" departPos="51.03" departSpeed="max" arrivalLane="1" arrivalPos="9.22">
        <route edges="gneE9 gneE2 gneE1"/>
    </vehicle>
    <vehicle id="-flow-random-route-c6d51e7a-f514-46d2-b8a7-ed22a636d20a--6430998886461770737-7-0.0" type="actor-car--3264491230996599063" depart="0.00" departLane="1" departPos="10.60" departSpeed="max" arrivalLane="1" arrivalPos="51.84">
        <route edges="gneE7.141 gneE8 gneE9 gneE2 gneE1 gneE1.12 gneE5 gneE7 gneE7.117 gneE10"/>
    </vehicle>
    <vehicle id="-flow-random-route-ce426155-b3b6-4796-ab6a-df827a9989e8--6430998886461770737-13-0.0" type="actor-car--3264491230996599063" depart="0.00" departLane="1" departPos="8.63" departSpeed="max" arrivalLane="0" arrivalPos="29.86">
        <route edges="gneE1 gneE1.12 gneE5 gneE7 gneE7.117 gneE7.141 gneE8 gneE9 gneE2 gneE1"/>
    </vehicle>
    <vehicle id="-flow-random-route-ceb9cdc0-da64-49b5-83e4-903e9eee7be8--6430998886461770737-4-0.0" type="actor-car--3264491230996599063" depart="0.00" departLane="0" departPos="46.08" departSpeed="max" arrivalLane="1" arrivalPos="9.68">
        <route edges="gneE10 gneE3 gneE1"/>
    </vehicle>
    <vehicle id="-flow-random-route-cf62641d-f585-4e72-b80b-4bc609b2ec74--6430998886461770737-12-0.0" type="actor-car--3264491230996599063" depart="0.00" departLane="0" departPos="28.73" departSpeed="max" arrivalLane="1" arrivalPos="79.57">
        <route edges="gneE16 gneE7.117 gneE10"/>
    </vehicle>
    <vehicle id="-flow-random-route-d529a2cc-0b97-4137-b7bc-9395b85e051a--6430998886461770737-11-0.0" type="actor-car--3264491230996599063" depart="0.00" departLane="0" departPos="101.00" departSpeed="max" arrivalLane="1" arrivalPos="35.45">
        <route edges="gneE16 gneE7.117 gneE10 gneE3 gneE1"/>
    </vehicle>
    <vehicle id="-flow-random-route-e253f647-e063-43de-b581-d7170cc1b76b--6430998886461770737-3-0.0" type="actor-car--3264491230996599063" depart="0.00" departLane="0" departPos="152.32" departSpeed="max" arrivalLane="1" arrivalPos="31.01">
        <route edges="gneE8 gneE9 gneE2 gneE1 gneE1.12 gneE5 gneE7 gneE7.117 gneE7.141 gneE8"/>
    </vehicle>
    <vehicle id="-flow-random-route-e9fb16bb-389c-4df5-b2ef-eb765826c1c6--6430998886461770737-6-0.0" type="actor-car--3264491230996599063" depart="0.00" departLane="0" departPos="54.68" departSpeed="max" arrivalLane="0" arrivalPos="45.78">
        <route edges="gneE7.141 gneE8 gneE9 gneE2 gneE1 gneE1.12 gneE5 gneE7 gneE7.117 gneE10"/>
    </vehicle>
    <vehicle id="-flow-random-route-f23b38e0-6a25-4df1-b782-ad66de4e7b3d--6430998886461770737-17-0.0" type="actor-car--3264491230996599063" depart="0.00" departLane="1" departPos="41.46" departSpeed="max" arrivalLane="0" arrivalPos="12.18">
        <route edges="gneE5 gneE7 gneE7.117 gneE10 gneE3"/>
    </vehicle>
    <vehicle id="-flow-random-route-f5589524-4fdb-4d4b-aeb2-1c5a1bc9523e--6430998886461770737-18-0.0" type="actor-car--3264491230996599063" depart="0.00" departLane="1" departPos="75.70" departSpeed="max" arrivalLane="1" arrivalPos="20.39">
        <route edges="gneE9 gneE2 gneE1"/>
    </vehicle>
    <vehicle id="-flow-random-route-0eacbd02-4848-4c06-a294-dd706ff603a9--6430998886461770737-22-0.1" type="actor-car--3264491230996599063" depart="120.00" departLane="1" departPos="101.44" departSpeed="max" arrivalLane="0" arrivalPos="32.83">
        <route edges="gneE1.12 gneE5 gneE7 gneE7.117 gneE7.141 gneE8 gneE9 gneE2 gneE1 gneE16"/>
    </vehicle>
    <vehicle id="-flow-random-route-1162ac90-ebe1-4a57-9a98-5f9c4b6e88c0--6430998886461770737-0-0.1" type="actor-car--3264491230996599063" depart="120.00" departLane="1" departPos="32.90" departSpeed="max" arrivalLane="1" arrivalPos="94.52">
        <route edges="gneE1.12 gneE5 gneE7 gneE7.117 gneE10"/>
    </vehicle>
    <vehicle id="-flow-random-route-1c3c40a5-ca81-464e-98db-5c70a9cd733e--6430998886461770737-21-0.1" type="actor-car--3264491230996599063" depart="120.00" departLane="0" departPos="63.04" departSpeed="max" arrivalLane="0" arrivalPos="19.94">
        <route edges="gneE7.141 gneE8 gneE9 gneE2 gneE1 gneE1.12 gneE5 gneE7 gneE7.117 gneE10"/>
    </vehicle>
    <vehicle id="-flow-random-route-270e0879-f5e8-407e-b0dc-aa022342faf4--6430998886461770737-25-0.1" type="actor-car--3264491230996599063" depart="120.00" departLane="1" departPos="57.92" departSpeed="max" arrivalLane="1" arrivalPos="35.13">
        <route edges="gneE7.117 gneE10 gneE3 gneE1 gneE16 gneE7.117 gneE7.141 gneE8 gneE9 gneE2"/>
    </vehicle>
    <vehicle id="-flow-random-route-2d048dbc-b2bd-42fa-b392-694ee409a43e--6430998886461770737-14-0.1" type="actor-car--3264491230996599063" depart="120.00" departLane="0" departPos="142.73" departSpeed="max" arrivalLane="1" arrivalPos="25.42">
        <route edges="gneE8 gneE9 gneE2"/>
    </vehicle>
    <vehicle id="-flow-random-route-30089d3d-7809-4840-a036-6ee152af55c4--6430998886461770737-19-0.1" type="actor-car--3264491230996599063" depart="120.00" departLane="0" departPos="44.91" departSpeed="max" arrivalLane="0" arrivalPos="71.29">
        <route edges="gneE2 gneE1 gneE16"/>
    </vehicle>
    <vehicle id="-flow-random-route-34e8f344-3de7-4af8-ac42-ba15364b3a0a--6430998886461770737-1-0.1" type="actor-car--3264491230996599063" depart="120.00" departLane="0" departPos="32.02" departSpeed="max" arrivalLane="0" arrivalPos="63.63">
        <route edges="gneE2 gneE1 gneE16 gneE7.117 gneE10"/>
    </vehicle>
    <vehicle id="-flow-random-route-388641eb-09f9-4531-9679-0557b78944c3--6430998886461770737-28-0.1" type="actor-car--3264491230996599063" depart="120.00" departLane="1" departPos="139.88" departSpeed="max" arrivalLane="0" arrivalPos="27.74">
        <route edges="gneE7.117 gneE10 gneE3"/>
    </vehicle>
    <vehicle id="-flow-random-route-3894fb5d-d311-4d14-9541-98b447cbf367--6430998886461770737-23-0.1" type="actor-car--3264491230996599063" depart="120.00" departLane="0" departPos="0.98" departSpeed="max" arrivalLane="0" arrivalPos="31.10">
        <route edges="gneE5 gneE7 gneE7.117 gneE7.141 gneE8 gneE9 gneE2 gneE1 gneE1.12 gneE5"/>
    </vehicle>
    <vehicle id="-flow-random-route-415e2fe1-bc46-40f8-8163-19b9b7388b47--6430998886461770737-16-0.1" type="actor-car--3264491230996599063" depart="120.00" departLane="0" departPos="110.65" departSpeed="max" arrivalLane="1" arrivalPos="10.24">
        <route edges="gneE8 gneE9 gneE2"/>
    </vehicle>
    <vehicle id="-flow-random-route-5f90c192-0ff9-4ca9-b892-cc633c792ef2--6430998886461770737-24-0.1" type="actor-car--3264491230996599063" depart="120.00" departLane="0" departPos="22.38" departSpeed="max" arrivalLane="0" arrivalPos="75.84">
        <route edges="gneE7 gneE7.117 gneE10 gneE3 gneE1 gneE16 gneE7.117 gneE7.141 gneE8 gneE9"/>
    </vehicle>
    <vehicle id="-flow-random-route-6e49f0b1-facb-43a3-9a43-78a828406d46--6430998886461770737-9-0.1" type="actor-car--3264491230996599063" depart="120.00" departLane="0" departPos="10.39" departSpeed="max" arrivalLane="0" arrivalPos="19.22">
        <route edges="gneE3 gneE1 gneE1.12 gneE5 gneE7 gneE7.117 gneE10 gneE3 gneE1 gneE16"/>
    </vehicle>
    <vehicle id="-flow-random-route-71748d54-bcfb-472b-9f88-53db6bb95d72--6430998886461770737-5-0.1" type="actor-car--3264491230996599063" depart="120.00" departLane="0" departPos="127.37" departSpeed="max" arrivalLane="0" arrivalPos="60.15">
        <route edges="gneE16 gneE7.117 gneE10 gneE3 gneE1 gneE16 gneE7.117 gneE7.141 gneE8 gneE9"/>
    </vehicle>
    <vehicle id="-flow-random-route-7bece382-86de-481a-a99c-bcb2c7bb4a7c--6430998886461770737-8-0.1" type="actor-car--3264491230996599063" depart="120.00" departLane="0" departPos="3.52" departSpeed="max" arrivalLane="0" arrivalPos="170.89">
        <route edges="gneE7.117 gneE7.141 gneE8"/>
    </vehicle>
    <vehicle id="-flow-random-route-7ef5816b-dd24-431b-88a8-5318d4a37a7c--6430998886461770737-10-0.1" type="actor-car--3264491230996599063" depart="120.00" departLane="0" departPos="52.27" departSpeed="max" arrivalLane="1" arrivalPos="28.92">
        <route edges="gneE5 gneE7 gneE7.117 gneE10 gneE3"/>
    </vehicle>
    <vehicle id="-flow-random-route-8839019e-5a30-4016-9882-e55c694ea1ef--6430998886461770737-2-0.1" type="actor-car--3264491230996599063" depart="120.00" departLane="1" departPos="86.24" departSpeed="max" arrivalLane="0" arrivalPos="123.11">
        <route edges="gneE1.12 gneE5 gneE7 gneE7.117 gneE7.141 gneE8 gneE9 gneE2 gneE1 gneE16"/>
    </vehicle>
    <vehicle id="-flow-random-route-8eb6b2d5-b9a2-4669-9015-216df9d78c5e--6430998886461770737-27-0.1" type="actor-car--3264491230996599063" depart="120.00" departLane="0" departPos="63.76" departSpeed="max" arrivalLane="1" arrivalPos="49.06">
        <route edges="gneE16 gneE7.117 gneE7.141 gneE8 gneE9 gneE2 gneE1 gneE1.12 gneE5 gneE7"/>
    </vehicle>
    <vehicle id="-flow-random-route-96ecc586-61bb-42dc-9350-88491337b3d9--6430998886461770737-20-0.1" type="actor-car--3264491230996599063" depart="120.00" departLane="0" departPos="80.76" departSpeed="max" arrivalLane="1" arrivalPos="8.62">
        <route edges="gneE9 gneE2 gneE1 gneE1.12 gneE5 gneE7 gneE7.117 gneE7.141 gneE8 gneE9"/>
    </vehicle>
    <vehicle id="-flow-random-route-b1f54f49-cf5c-4328-bf77-432cecec475d--6430998886461770737-26-0.1" type="actor-car--3264491230996599063" depart="120.00" departLane="0" departPos="25.80" departSpeed="max" arrivalLane="0" arrivalPos="131.61">
        <route edges="gneE5 gneE7 gneE7.117 gneE7.141 gneE8 gneE9 gneE2 gneE1 gneE1.12 gneE5"/>
    </vehicle>
    <vehicle id="-flow-random-route-bdf669b5-6b6e-4e7e-b5a7-f71ce7e02b18--6430998886461770737-29-0.1" type="actor-car--3264491230996599063" depart="120.00" departLane="1" departPos="78.44" departSpeed="max" arrivalLane="0" arrivalPos="6.23">
        <route edges="gneE5 gneE7 gneE7.117 gneE7.141 gneE8 gneE9 gneE2 gneE1 gneE1.12 gneE5"/>
    </vehicle>
    <vehicle id="-flow-random-route-c01ecf2f-e7ea-4c7c-951b-c42c760dceca--6430998886461770737-15-0.1" type="actor-car--3264491230996599063" depart="120.00" departLane="1" departPos="51.03" departSpeed="max" arrivalLane="1" arrivalPos="9.22">
        <route edges="gneE9 gneE2 gneE1"/>
    </vehicle>
    <vehicle id="-flow-random-route-c6d51e7a-f514-46d2-b8a7-ed22a636d20a--6430998886461770737-7-0.1" type="actor-car--3264491230996599063" depart="120.00" departLane="1" departPos="10.60" departSpeed="max" arrivalLane="1" arrivalPos="51.84">
        <route edges="gneE7.141 gneE8 gneE9 gneE2 gneE1 gneE1.12 gneE5 gneE7 gneE7.117 gneE10"/>
    </vehicle>
    <vehicle id="-flow-random-route-ce426155-b3b6-4796-ab6a-df827a9989e8--6430998886461770737-13-0.1" type="actor-car--3264491230996599063" depart="120.00" departLane="1" departPos="8.63" departSpeed="max" arrivalLane="0" arrivalPos="29.86">
        <route edges="gneE1 gneE1.12 gneE5 gneE7 gneE7.117 gneE7.141 gneE8 gneE9 gneE2 gneE1"/>
    </vehicle>
    <vehicle id="-flow-random-route-ceb9cdc0-da64-49b5-83e4-903e9eee7be8--6430998886461770737-4-0.1" type="actor-car--3264491230996599063" depart="120.00" departLane="0" departPos="46.08" departSpeed="max" arrivalLane="1" arrivalPos="9.68">
        <route edges="gneE10 gneE3 gneE1"/>
    </vehicle>
    <vehicle id="-flow-random-route-cf62641d-f585-4e72-b80b-4bc609b2ec74--6430998886461770737-12-0.1" type="actor-car--3264491230996599063" depart="120.00" departLane="0" departPos="28.73" departSpeed="max" arrivalLane="1" arrivalPos="79.57">
        <route edges="gneE16 gneE7.117 gneE10"/>
    </vehicle>
    <vehicle id="-flow-random-route-d529a2cc-0b97-4137-b7bc-9395b85e051a--6430998886461770737-11-0.1" type="actor-car--3264491230996599063" depart="120.00" departLane="0" departPos="101.00" departSpeed="max" arrivalLane="1" arrivalPos="35.45">
        <route edges="gneE16 gneE7.117 gneE10 gneE3 gneE1"/>
    </vehicle>
    <vehicle id="-flow-random-route-e253f647-e063-43de-b581-d7170cc1b76b--6430998886461770737-3-0.1" type="actor-car--3264491230996599063" depart="120.00" departLane="0" departPos="152.32" departSpeed="max" arrivalLane="1" arrivalPos="31.01">
        <route edges="gneE8 gneE9 gneE2 gneE1 gneE1.12 gneE5 gneE7 gneE7.117 gneE7.141 gneE8"/>
    </vehicle>
    <vehicle id="-flow-random-route-e9fb16bb-389c-4df5-b2ef-eb765826c1c6--6430998886461770737-6-0.1" type="actor-car--3264491230996599063" depart="120.00" departLane="0" departPos="54.68" departSpeed="max" arrivalLane="0" arrivalPos="45.78">
        <route edges="gneE7.141 gneE8 gneE9 gneE2 gneE1 gneE1.12 gneE5 gneE7 gneE7.117 gneE10"/>
    </vehicle>
    <vehicle id="-flow-random-route-f23b38e0-6a25-4df1-b782-ad66de4e7b3d--6430998886461770737-17-0.1" type="actor-car--3264491230996599063" depart="120.00" departLane="1" departPos="41.46" departSpeed="max" arrivalLane="0" arrivalPos="12.18">
        <route edges="gneE5 gneE7 gneE7.117 gneE10 gneE3"/>
    </vehicle>
    <vehicle id="-flow-random-route-f5589524-4fdb-4d4b-aeb2-1c5a1bc9523e--6430998886461770737-18-0.1" type="actor-car--3264491230996599063" depart="120.00" departLane="1" departPos="75.70" departSpeed="max" arrivalLane="1" arrivalPos="20.39">
        <route edges="gneE9 gneE2 gneE1"/>
    </vehicle>
    <vehicle id="-flow-random-route-0eacbd02-4848-4c06-a294-dd706ff603a9--6430998886461770737-22-0.2" type="actor-car--3264491230996599063" depart="240.00" departLane="1" departPos="101.44" departSpeed="max" arrivalLane="0" arrivalPos="32.83">
        <route edges="gneE1.12 gneE5 gneE7 gneE7.117 gneE7.141 gneE8 gneE9 gneE2 gneE1 gneE16"/>
    </vehicle>
    <vehicle id="-flow-random-route-1162ac90-ebe1-4a57-9a98-5f9c4b6e88c0--6430998886461770737-0-0.2" type="actor-car--3264491230996599063" depart="240.00" departLane="1" departPos="32.90" departSpeed="max" arrivalLane="1" arrivalPos="94.52">
        <route edges="gneE1.12 gneE5 gneE7 gneE7.117 gneE10"/>
    </vehicle>
    <vehicle id="-flow-random-route-1c3c40a5-ca81-464e-98db-5c70a9cd733e--6430998886461770737-21-0.2" type="actor-car--3264491230996599063" depart="240.00" departLane="0" departPos="63.04" departSpeed="max" arrivalLane="0" arrivalPos="19.94">
        <route edges="gneE7.141 gneE8 gneE9 gneE2 gneE1 gneE1.12 gneE5 gneE7 gneE7.117 gneE10"/>
    </vehicle>
    <vehicle id="-flow-random-route-270e0879-f5e8-407e-b0dc-aa022342faf4--6430998886461770737-25-0.2" type="actor-car--3264491230996599063" depart="240.00" departLane="1" departPos="57.92" departSpeed="max" arrivalLane="1" arrivalPos="35.13">
        <route edges="gneE7.117 gneE10 gneE3 gneE1 gneE16 gneE7.117 gneE7.141 gneE8 gneE9 gneE2"/>
    </vehicle>
    <vehicle id="-flow-random-route-2d048dbc-b2bd-42fa-b392-694ee409a43e--6430998886461770737-14-0.2" type="actor-car--3264491230996599063" depart="240.00" departLane="0" departPos="142.73" departSpeed="max" arrivalLane="1" arrivalPos="25.42">
        <route edges="gneE8 gneE9 gneE2"/>
    </vehicle>
    <vehicle id="-flow-random-route-30089d3d-7809-4840-a036-6ee152af55c4--6430998886461770737-19-0.2" type="actor-car--3264491230996599063" depart="240.00" departLane="0" departPos="44.91" departSpeed="max" arrivalLane="0" arrivalPos="71.29">
        <route edges="gneE2 gneE1 gneE16"/>
    </vehicle>
    <vehicle id="-flow-random-route-34e8f344-3de7-4af8-ac42-ba15364b3a0a--6430998886461770737-1-0.2" type="actor-car--3264491230996599063" depart="240.00" departLane="0" departPos="32.02" departSpeed="max" arrivalLane="0" arrivalPos="63.63">
        <route edges="gneE2 gneE1 gneE16 gneE7.117 gneE10"/>
    </vehicle>
    <vehicle id="-flow-random-route-388641eb-09f9-4531-9679-0557b78944c3--6430998886461770737-28-0.2" type="actor-car--3264491230996599063" depart="240.00" departLane="1" departPos="139.88" departSpeed="max" arrivalLane="0" arrivalPos="27.74">
        <route edges="gneE7.117 gneE10 gneE3"/>
    </vehicle>
    <vehicle id="-flow-random-route-3894fb5d-d311-4d14-9541-98b447cbf367--6430998886461770737-23-0.2" type="actor-car--3264491230996599063" depart="240.00" departLane="0" departPos="0.98" departSpeed="max" arrivalLane="0" arrivalPos="31.10">
        <route edges="gneE5 gneE7 gneE7.117 gneE7.141 gneE8 gneE9 gneE2 gneE1 gneE1.12 gneE5"/>
    </vehicle>
    <vehicle id="-flow-random-route-415e2fe1-bc46-40f8-8163-19b9b7388b47--6430998886461770737-16-0.2" type="actor-car--3264491230996599063" depart="240.00" departLane="0" departPos="110.65" departSpeed="max" arrivalLane="1" arrivalPos="10.24">
        <route edges="gneE8 gneE9 gneE2"/>
    </vehicle>
    <vehicle id="-flow-random-route-5f90c192-0ff9-4ca9-b892-cc633c792ef2--6430998886461770737-24-0.2" type="actor-car--3264491230996599063" depart="240.00" departLane="0" departPos="22.38" departSpeed="max" arrivalLane="0" arrivalPos="75.84">
        <route edges="gneE7 gneE7.117 gneE10 gneE3 gneE1 gneE16 gneE7.117 gneE7.141 gneE8 gneE9"/>
    </vehicle>
    <vehicle id="-flow-random-route-6e49f0b1-facb-43a3-9a43-78a828406d46--6430998886461770737-9-0.2" type="actor-car--3264491230996599063" depart="240.00" departLane="0" departPos="10.39" departSpeed="max" arrivalLane="0" arrivalPos="19.22">
        <route edges="gneE3 gneE1 gneE1.12 gneE5 gneE7 gneE7.117 gneE10 gneE3 gneE1 gneE16"/>
    </vehicle>
    <vehicle id="-flow-random-route-71748d54-bcfb-472b-9f88-53db6bb95d72--6430998886461770737-5-0.2" type="actor-car--3264491230996599063" depart="240.00" departLane="0" departPos="127.37" departSpeed="max" arrivalLane="0" arrivalPos="60.15">
        <route edges="gneE16 gneE7.117 gneE10 gneE3 gneE1 gneE16 gneE7.117 gneE7.141 gneE8 gneE9"/>
    </vehicle>
    <vehicle id="-flow-random-route-7bece382-86de-481a-a99c-bcb2c7bb4a7c--6430998886461770737-8-0.2" type="actor-car--3264491230996599063" depart="240.00" departLane="0" departPos="3.52" departSpeed="max" arrivalLane="0" arrivalPos="170.89">
        <route edges="gneE7.117 gneE7.141 gneE8"/>
    </vehicle>
    <vehicle id="-flow-random-route-7ef5816b-dd24-431b-88a8-5318d4a37a7c--6430998886461770737-10-0.2" type="actor-car--3264491230996599063" depart="240.00" departLane="0" departPos="52.27" departSpeed="max" arrivalLane="1" arrivalPos="28.92">
        <route edges="gneE5 gneE7 gneE7.117 gneE10 gneE3"/>
    </vehicle>
    <vehicle id="-flow-random-route-8839019e-5a30-4016-9882-e55c694ea1ef--6430998886461770737-2-0.2" type="actor-car--3264491230996599063" depart="240.00" departLane="1" departPos="86.24" departSpeed="max" arrivalLane="0" arrivalPos="123.11">
        <route edges="gneE1.12 gneE5 gneE7 gneE7.117 gneE7.141 gneE8 gneE9 gneE2 gneE1 gneE16"/>
    </vehicle>
    <vehicle id="-flow-random-route-8eb6b2d5-b9a2-4669-9015-216df9d78c5e--6430998886461770737-27-0.2" type="actor-car--3264491230996599063" depart="240.00" departLane="0" departPos="63.76" departSpeed="max" arrivalLane="1" arrivalPos="49.06">
        <route edges="gneE16 gneE7.117 gneE7.141 gneE8 gneE9 gneE2 gneE1 gneE1.12 gneE5 gneE7"/>
    </vehicle>
    <vehicle id="-flow-random-route-96ecc586-61bb-42dc-9350-88491337b3d9--6430998886461770737-20-0.2" type="actor-car--3264491230996599063" depart="240.00" departLane="0" departPos="80.76" departSpeed="max" arrivalLane="1" arrivalPos="8.62">
        <route edges="gneE9 gneE2 gneE1 gneE1.12 gneE5 gneE7 gneE7.117 gneE7.141 gneE8 gneE9"/>
    </vehicle>
    <vehicle id="-flow-random-route-b1f54f49-cf5c-4328-bf77-432cecec475d--6430998886461770737-26-0.2" type="actor-car--3264491230996599063" depart="240.00" departLane="0" departPos="25.80" departSpeed="max" arrivalLane="0" arrivalPos="131.61">
        <route edges="gneE5 gneE7 gneE7.117 gneE7.141 gneE8 gneE9 gneE2 gneE1 gneE1.12 gneE5"/>
    </vehicle>
    <vehicle id="-flow-random-route-bdf669b5-6b6e-4e7e-b5a7-f71ce7e02b18--6430998886461770737-29-0.2" type="actor-car--3264491230996599063" depart="240.00" departLane="1" departPos="78.44" departSpeed="max" arrivalLane="0" arrivalPos="6.23">
        <route edges="gneE5 gneE7 gneE7.117 gneE7.141 gneE8 gneE9 gneE2 gneE1 gneE1.12 gneE5"/>
    </vehicle>
    <vehicle id="-flow-random-route-c01ecf2f-e7ea-4c7c-951b-c42c760dceca--6430998886461770737-15-0.2" type="actor-car--3264491230996599063" depart="240.00" departLane="1" departPos="51.03" departSpeed="max" arrivalLane="1" arrivalPos="9.22">
        <route edges="gneE9 gneE2 gneE1"/>
    </vehicle>
    <vehicle id="-flow-random-route-c6d51e7a-f514-46d2-b8a7-ed22a636d20a--6430998886461770737-7-0.2" type="actor-car--3264491230996599063" depart="240.00" departLane="1" departPos="10.60" departSpeed="max" arrivalLane="1" arrivalPos="51.84">
        <route edges="gneE7.141 gneE8 gneE9 gneE2 gneE1 gneE1.12 gneE5 gneE7 gneE7.117 gneE10"/>
    </vehicle>
    <vehicle id="-flow-random-route-ce426155-b3b6-4796-ab6a-df827a9989e8--6430998886461770737-13-0.2" type="actor-car--3264491230996599063" depart="240.00" departLane="1" departPos="8.63" departSpeed="max" arrivalLane="0" arrivalPos="29.86">
        <route edges="gneE1 gneE1.12 gneE5 gneE7 gneE7.117 gneE7.141 gneE8 gneE9 gneE2 gneE1"/>
    </vehicle>
    <vehicle id="-flow-random-route-ceb9cdc0-da64-49b5-83e4-903e9eee7be8--6430998886461770737-4-0.2" type="actor-car--3264491230996599063" depart="240.00" departLane="0" departPos="46.08" departSpeed="max" arrivalLane="1" arrivalPos="9.68">
        <route edges="gneE10 gneE3 gneE1"/>
    </vehicle>
    <vehicle id="-flow-random-route-cf62641d-f585-4e72-b80b-4bc609b2ec74--6430998886461770737-12-0.2" type="actor-car--3264491230996599063" depart="240.00" departLane="0" departPos="28.73" departSpeed="max" arrivalLane="1" arrivalPos="79.57">
        <route edges="gneE16 gneE7.117 gneE10"/>
    </vehicle>
    <vehicle id="-flow-random-route-d529a2cc-0b97-4137-b7bc-9395b85e051a--6430998886461770737-11-0.2" type="actor-car--3264491230996599063" depart="240.00" departLane="0" departPos="101.00" departSpeed="max" arrivalLane="1" arrivalPos="35.45">
        <route edges="gneE16 gneE7.117 gneE10 gneE3 gneE1"/>
    </vehicle>