<?xml version="1.0" encoding="UTF-8"?>

<!-- generated on Sun Aug 30 13:07:46 2020 by Eclipse SUMO duarouter Version 1.6.0
<configuration xmlns:xsi="http://www.w3.org/2001/XMLSchema-instance" xsi:noNamespaceSchemaLocation="http://sumo.dlr.de/xsd/duarouterConfiguration.xsd">

    <input>
        <net-file value="../dataset_public/sharp_loop/sharploop_a/map.net.xml"/>
        <route-files value="/tmp/tmp66efh0_2/trips.trips.xml"/>
    </input>

    <output>
        <output-file value="../dataset_public/sharp_loop/sharploop_a/traffic/30_patient_car.rou.xml"/>
        <alternatives-output value="../dataset_public/sharp_loop/sharploop_a/traffic/30_patient_car.rou.alt.xml"/>
    </output>

    <processing>
        <unsorted-input value="true"/>
        <repair value="true"/>
    </processing>

    <report>
        <error-log value="/tmp/smarts/_duarouter_routing/traffic/30_patient_car.log"/>
        <no-step-log value="true"/>
    </report>

    <random_number>
        <seed value="42"/>
    </random_number>

</configuration>
-->

<routes xmlns:xsi="http://www.w3.org/2001/XMLSchema-instance" xsi:noNamespaceSchemaLocation="http://sumo.dlr.de/xsd/routes_file.xsd">
    <vType id="actor-car--7596067854889985177" minGap="2.50" speedFactor="normc(0.50,0.20,0.20,2.00)" vClass="passenger" impatience="0.50" lcCooperative="0.5" lcImpatience="0" jmDriveAfterYellowTime="1.0" accel="2.6" decel="4.5" sigma="0.5"/>
    <vehicle id="-flow-random-route-041223c6-33a3-4693-b7c7-850c122ee0d1--5533509833722107260-28-0.0" type="actor-car--7596067854889985177" depart="0.00" departLane="1" departPos="33.33" departSpeed="max" arrivalLane="2" arrivalPos="361.30">
        <route edges="edge0 edge1"/>
    </vehicle>
    <vehicle id="-flow-random-route-0cb46dbf-6ca0-4b76-b230-ce01672464f4--5533509833722107260-10-0.0" type="actor-car--7596067854889985177" depart="0.00" departLane="2" departPos="8.25" departSpeed="max" arrivalLane="2" arrivalPos="686.49">
        <route edges="edge0 edge1"/>
    </vehicle>
    <vehicle id="-flow-random-route-10339ebf-0162-4c17-8fd7-99fbd34ad35a--5533509833722107260-5-0.0" type="actor-car--7596067854889985177" depart="0.00" departLane="2" departPos="98.32" departSpeed="max" arrivalLane="1" arrivalPos="220.55">
        <route edges="edge0 edge1"/>
    </vehicle>
    <vehicle id="-flow-random-route-10e6007d-2e55-47ee-a48b-021cb3e79f2a--5533509833722107260-19-0.0" type="actor-car--7596067854889985177" depart="0.00" departLane="0" departPos="88.22" departSpeed="max" arrivalLane="2" arrivalPos="42.52">
        <route edges="edge0 edge1"/>
    </vehicle>
    <vehicle id="-flow-random-route-1407eb78-ab15-42b4-abb9-e11f79415da4--5533509833722107260-2-0.0" type="actor-car--7596067854889985177" depart="0.00" departLane="2" departPos="20.15" departSpeed="max" arrivalLane="2" arrivalPos="401.93">
        <route edges="edge0 edge1"/>
    </vehicle>
    <vehicle id="-flow-random-route-168836be-098c-492d-ac4d-fffe4bc32a7b--5533509833722107260-3-0.0" type="actor-car--7596067854889985177" depart="0.00" departLane="2" departPos="116.06" departSpeed="max" arrivalLane="2" arrivalPos="636.59">
        <route edges="edge0 edge1"/>
    </vehicle>
    <vehicle id="-flow-random-route-1955d9cc-aec2-4c95-a2f5-af048abfc88b--5533509833722107260-17-0.0" type="actor-car--7596067854889985177" depart="0.00" departLane="1" departPos="167.03" departSpeed="max" arrivalLane="0" arrivalPos="133.74">
        <route edges="edge1 edge0"/>
    </vehicle>
    <vehicle id="-flow-random-route-20ca7e3d-569d-43d2-8565-dd782e922d43--5533509833722107260-18-0.0" type="actor-car--7596067854889985177" depart="0.00" departLane="1" departPos="83.63" departSpeed="max" arrivalLane="2" arrivalPos="37.50">
        <route edges="edge1 edge0"/>
    </vehicle>
    <vehicle id="-flow-random-route-355e6d08-86ff-48fd-84df-1a92a721306d--5533509833722107260-23-0.0" type="actor-car--7596067854889985177" depart="0.00" departLane="0" departPos="131.70" departSpeed="max" arrivalLane="0" arrivalPos="114.84">
        <route edges="edge0 edge1"/>
    </vehicle>
    <vehicle id="-flow-random-route-3755e36d-3854-464d-beb2-ae63ed42a902--5533509833722107260-27-0.0" type="actor-car--7596067854889985177" depart="0.00" departLane="0" departPos="112.19" departSpeed="max" arrivalLane="1" arrivalPos="545.75">
        <route edges="edge0 edge1"/>
    </vehicle>
    <vehicle id="-flow-random-route-40ab2756-61df-4645-bacd-71c8ee0c1dde--5533509833722107260-11-0.0" type="actor-car--7596067854889985177" depart="0.00" departLane="2" departPos="386.38" departSpeed="max" arrivalLane="2" arrivalPos="33.54">
        <route edges="edge1 edge0"/>
    </vehicle>
    <vehicle id="-flow-random-route-422f5cab-b857-4e16-9664-97458ebd5ce0--5533509833722107260-14-0.0" type="actor-car--7596067854889985177" depart="0.00" departLane="2" departPos="645.63" departSpeed="max" arrivalLane="2" arrivalPos="104.62">
        <route edges="edge1 edge0"/>
    </vehicle>
    <vehicle id="-flow-random-route-43a45d2b-85f4-4275-a118-4e2475cfee8d--5533509833722107260-15-0.0" type="actor-car--7596067854889985177" depart="0.00" departLane="1" departPos="27.20" departSpeed="max" arrivalLane="1" arrivalPos="26.69">
        <route edges="edge0 edge1"/>
    </vehicle>
    <vehicle id="-flow-random-route-43ab69e8-e4ed-44f0-bddf-0f6e2a1da6a4--5533509833722107260-25-0.0" type="actor-car--7596067854889985177" depart="0.00" departLane="1" departPos="71.30" departSpeed="max" arrivalLane="1" arrivalPos="14.73">
        <route edges="edge1 edge0"/>
    </vehicle>
    <vehicle id="-flow-random-route-546075fe-b021-49bb-b702-cfa2fdcb1e1f--5533509833722107260-29-0.0" type="actor-car--7596067854889985177" depart="0.00" departLane="1" departPos="61.11" departSpeed="max" arrivalLane="0" arrivalPos="147.17">
        <route edges="edge0 edge1"/>
    </vehicle>
    <vehicle id="-flow-random-route-6d523f77-b711-43de-9320-d018efd0f004--5533509833722107260-8-0.0" type="actor-car--7596067854889985177" depart="0.00" departLane="1" departPos="254.36" departSpeed="max" arrivalLane="0" arrivalPos="136.92">
        <route edges="edge1 edge0"/>
    </vehicle>
    <vehicle id="-flow-random-route-6e323f7e-5d84-40c4-be11-94237f64812b--5533509833722107260-26-0.0" type="actor-car--7596067854889985177" depart="0.00" departLane="2" departPos="683.45" departSpeed="max" arrivalLane="0" arrivalPos="112.90">
        <route edges="edge1 edge0"/>
    </vehicle>
    <vehicle id="-flow-random-route-7880ca68-cb2e-4c08-8e57-1fba3be46a4b--5533509833722107260-13-0.0" type="actor-car--7596067854889985177" depart="0.00" departLane="2" departPos="146.92" departSpeed="max" arrivalLane="1" arrivalPos="31.01">
        <route edges="edge1 edge0"/>
    </vehicle>
    <vehicle id="-flow-random-route-7e91ea72-c8c5-4cf3-a008-16ff17102990--5533509833722107260-20-0.0" type="actor-car--7596067854889985177" depart="0.00" departLane="0" departPos="42.43" departSpeed="max" arrivalLane="0" arrivalPos="609.99">
        <route edges="edge0 edge1"/>
    </vehicle>
    <vehicle id="-flow-random-route-95aa3042-e73c-443c-b568-3762f5d69fe3--5533509833722107260-24-0.0" type="actor-car--7596067854889985177" depart="0.00" departLane="1" departPos="106.20" departSpeed="max" arrivalLane="2" arrivalPos="88.79">
        <route edges="edge0 edge1"/>
    </vehicle>
    <vehicle id="-flow-random-route-97bcd281-b832-4559-b49c-cbafe556dedb--5533509833722107260-6-0.0" type="actor-car--7596067854889985177" depart="0.00" departLane="1" departPos="308.16" departSpeed="max" arrivalLane="2" arrivalPos="32.55">
        <route edges="edge1 edge0"/>
    </vehicle>
    <vehicle id="-flow-random-route-98b24fcb-78c8-4ee4-9886-946e6dbe00da--5533509833722107260-12-0.0" type="actor-car--7596067854889985177" depart="0.00" departLane="0" departPos="461.26" departSpeed="max" arrivalLane="1" arrivalPos="150.07">
        <route edges="edge1 edge0"/>
    </vehicle>
    <vehicle id="-flow-random-route-aee65b00-7564-498a-85f6-1663d972e836--5533509833722107260-4-0.0" type="actor-car--7596067854889985177" depart="0.00" departLane="2" departPos="115.04" departSpeed="max" arrivalLane="2" arrivalPos="140.31">
        <route edges="edge0 edge1"/>
    </vehicle>
    <vehicle id="-flow-random-route-c676cbe1-2b1e-432e-8aec-2027b9bcf818--5533509833722107260-7-0.0" type="actor-car--7596067854889985177" depart="0.00" departLane="0" departPos="32.24" departSpeed="max" arrivalLane="1" arrivalPos="93.11">
        <route edges="edge1 edge0"/>
    </vehicle>
    <vehicle id="-flow-random-route-cfe19b82-dd07-47f9-af8e-81831d2e7ddb--5533509833722107260-22-0.0" type="actor-car--7596067854889985177" depart="0.00" departLane="1" departPos="212.88" departSpeed="max" arrivalLane="0" arrivalPos="33.96">
        <route edges="edge1 edge0"/>
    </vehicle>
    <vehicle id="-flow-random-route-e0f37a74-d96d-4f7f-a415-e48cf10a1601--5533509833722107260-0-0.0" type="actor-car--7596067854889985177" depart="0.00" departLane="2" departPos="151.73" departSpeed="max" arrivalLane="2" arrivalPos="175.37">
        <route edges="edge0 edge1"/>
    </vehicle>
    <vehicle id="-flow-random-route-f0e6281b-e678-4382-9ae9-f492469b7291--5533509833722107260-9-0.0" type="actor-car--7596067854889985177" depart="0.00" departLane="2" departPos="278.60" departSpeed="max" arrivalLane="0" arrivalPos="151.91">
        <route edges="edge1 edge0"/>
    </vehicle>
    <vehicle id="-flow-random-route-f98b15ba-e4dc-4b25-9418-be998d573edd--5533509833722107260-21-0.0" type="actor-car--7596067854889985177" depart="0.00" departLane="1" departPos="43.41" departSpeed="max" arrivalLane="1" arrivalPos="581.57">
        <route edges="edge0 edge1"/>
    </vehicle>
    <vehicle id="-flow-random-route-f99dcfd2-336e-4f41-8a17-a4c869032050--5533509833722107260-1-0.0" type="actor-car--7596067854889985177" depart="0.00" departLane="0" departPos="352.51" departSpeed="max" arrivalLane="0" arrivalPos="85.49">
        <route edges="edge1 edge0"/>
    </vehicle>
    <vehicle id="-flow-random-route-f9e030f8-f1e3-45fb-af20-785b9bb99a64--5533509833722107260-16-0.0" type="actor-car--7596067854889985177" depart="0.00" departLane="2" departPos="142.67" departSpeed="max" arrivalLane="2" arrivalPos="49.81">
        <route edges="edge0 edge1"/>
    </vehicle>
    <vehicle id="-flow-random-route-041223c6-33a3-4693-b7c7-850c122ee0d1--5533509833722107260-28-0.1" type="actor-car--7596067854889985177" depart="120.00" departLane="1" departPos="33.33" departSpeed="max" arrivalLane="2" arrivalPos="361.30">
        <route edges="edge0 edge1"/>
    </vehicle>
    <vehicle id="-flow-random-route-0cb46dbf-6ca0-4b76-b230-ce01672464f4--5533509833722107260-10-0.1" type="actor-car--7596067854889985177" depart="120.00" departLane="2" departPos="8.25" departSpeed="max" arrivalLane="2" arrivalPos="686.49">
        <route edges="edge0 edge1"/>
    </vehicle>
    <vehicle id="-flow-random-route-10339ebf-0162-4c17-8fd7-99fbd34ad35a--5533509833722107260-5-0.1" type="actor-car--7596067854889985177" depart="120.00" departLane="2" departPos="98.32" departSpeed="max" arrivalLane="1" arrivalPos="220.55">
        <route edges="edge0 edge1"/>
    </vehicle>
    <vehicle id="-flow-random-route-10e6007d-2e55-47ee-a48b-021cb3e79f2a--5533509833722107260-19-0.1" type="actor-car--7596067854889985177" depart="120.00" departLane="0" departPos="88.22" departSpeed="max" arrivalLane="2" arrivalPos="42.52">
        <route edges="edge0 edge1"/>
    </vehicle>
    <vehicle id="-flow-random-route-1407eb78-ab15-42b4-abb9-e11f79415da4--5533509833722107260-2-0.1" type="actor-car--7596067854889985177" depart="120.00" departLane="2" departPos="20.15" departSpeed="max" arrivalLane="2" arrivalPos="401.93">
        <route edges="edge0 edge1"/>
    </vehicle>
    <vehicle id="-flow-random-route-168836be-098c-492d-ac4d-fffe4bc32a7b--5533509833722107260-3-0.1" type="actor-car--7596067854889985177" depart="120.00" departLane="2" departPos="116.06" departSpeed="max" arrivalLane="2" arrivalPos="636.59">
        <route edges="edge0 edge1"/>
    </vehicle>
    <vehicle id="-flow-random-route-1955d9cc-aec2-4c95-a2f5-af048abfc88b--5533509833722107260-17-0.1" type="actor-car--7596067854889985177" depart="120.00" departLane="1" departPos="167.03" departSpeed="max" arrivalLane="0" arrivalPos="133.74">
        <route edges="edge1 edge0"/>
    </vehicle>
    <vehicle id="-flow-random-route-20ca7e3d-569d-43d2-8565-dd782e922d43--5533509833722107260-18-0.1" type="actor-car--7596067854889985177" depart="120.00" departLane="1" departPos="83.63" departSpeed="max" arrivalLane="2" arrivalPos="37.50">
        <route edges="edge1 edge0"/>
    </vehicle>
    <vehicle id="-flow-random-route-355e6d08-86ff-48fd-84df-1a92a721306d--5533509833722107260-23-0.1" type="actor-car--7596067854889985177" depart="120.00" departLane="0" departPos="131.70" departSpeed="max" arrivalLane="0" arrivalPos="114.84">
        <route edges="edge0 edge1"/>
    </vehicle>
    <vehicle id="-flow-random-route-3755e36d-3854-464d-beb2-ae63ed42a902--5533509833722107260-27-0.1" type="actor-car--7596067854889985177" depart="120.00" departLane="0" departPos="112.19" departSpeed="max" arrivalLane="1" arrivalPos="545.75">
        <route edges="edge0 edge1"/>
    </vehicle>
    <vehicle id="-flow-random-route-40ab2756-61df-4645-bacd-71c8ee0c1dde--5533509833722107260-11-0.1" type="actor-car--7596067854889985177" depart="120.00" departLane="2" departPos="386.38" departSpeed="max" arrivalLane="2" arrivalPos="33.54">
        <route edges="edge1 edge0"/>
    </vehicle>
    <vehicle id="-flow-random-route-422f5cab-b857-4e16-9664-97458ebd5ce0--5533509833722107260-14-0.1" type="actor-car--7596067854889985177" depart="120.00" departLane="2" departPos="645.63" departSpeed="max" arrivalLane="2" arrivalPos="104.62">
        <route edges="edge1 edge0"/>
    </vehicle>
    <vehicle id="-flow-random-route-43a45d2b-85f4-4275-a118-4e2475cfee8d--5533509833722107260-15-0.1" type="actor-car--7596067854889985177" depart="120.00" departLane="1" departPos="27.20" departSpeed="max" arrivalLane="1" arrivalPos="26.69">
        <route edges="edge0 edge1"/>
    </vehicle>
    <vehicle id="-flow-random-route-43ab69e8-e4ed-44f0-bddf-0f6e2a1da6a4--5533509833722107260-25-0.1" type="actor-car--7596067854889985177" depart="120.00" departLane="1" departPos="71.30" departSpeed="max" arrivalLane="1" arrivalPos="14.73">
        <route edges="edge1 edge0"/>
    </vehicle>
    <vehicle id="-flow-random-route-546075fe-b021-49bb-b702-cfa2fdcb1e1f--5533509833722107260-29-0.1" type="actor-car--7596067854889985177" depart="120.00" departLane="1" departPos="61.11" departSpeed="max" arrivalLane="0" arrivalPos="147.17">
        <route edges="edge0 edge1"/>
    </vehicle>
    <vehicle id="-flow-random-route-6d523f77-b711-43de-9320-d018efd0f004--5533509833722107260-8-0.1" type="actor-car--7596067854889985177" depart="120.00" departLane="1" departPos="254.36" departSpeed="max" arrivalLane="0" arrivalPos="136.92">
        <route edges="edge1 edge0"/>
    </vehicle>
    <vehicle id="-flow-random-route-6e323f7e-5d84-40c4-be11-94237f64812b--5533509833722107260-26-0.1" type="actor-car--7596067854889985177" depart="120.00" departLane="2" departPos="683.45" departSpeed="max" arrivalLane="0" arrivalPos="112.90">
        <route edges="edge1 edge0"/>
    </vehicle>
    <vehicle id="-flow-random-route-7880ca68-cb2e-4c08-8e57-1fba3be46a4b--5533509833722107260-13-0.1" type="actor-car--7596067854889985177" depart="120.00" departLane="2" departPos="146.92" departSpeed="max" arrivalLane="1" arrivalPos="31.01">
        <route edges="edge1 edge0"/>
    </vehicle>
    <vehicle id="-flow-random-route-7e91ea72-c8c5-4cf3-a008-16ff17102990--5533509833722107260-20-0.1" type="actor-car--7596067854889985177" depart="120.00" departLane="0" departPos="42.43" departSpeed="max" arrivalLane="0" arrivalPos="609.99">
        <route edges="edge0 edge1"/>
    </vehicle>
    <vehicle id="-flow-random-route-95aa3042-e73c-443c-b568-3762f5d69fe3--5533509833722107260-24-0.1" type="actor-car--7596067854889985177" depart="120.00" departLane="1" departPos="106.20" departSpeed="max" arrivalLane="2" arrivalPos="88.79">
        <route edges="edge0 edge1"/>
    </vehicle>
    <vehicle id="-flow-random-route-97bcd281-b832-4559-b49c-cbafe556dedb--5533509833722107260-6-0.1" type="actor-car--7596067854889985177" depart="120.00" departLane="1" departPos="308.16" departSpeed="max" arrivalLane="2" arrivalPos="32.55">
        <route edges="edge1 edge0"/>
    </vehicle>
    <vehicle id="-flow-random-route-98b24fcb-78c8-4ee4-9886-946e6dbe00da--5533509833722107260-12-0.1" type="actor-car--7596067854889985177" depart="120.00" departLane="0" departPos="461.26" departSpeed="max" arrivalLane="1" arrivalPos="150.07">
        <route edges="edge1 edge0"/>
    </vehicle>
    <vehicle id="-flow-random-route-aee65b00-7564-498a-85f6-1663d972e836--5533509833722107260-4-0.1" type="actor-car--7596067854889985177" depart="120.00" departLane="2" departPos="115.04" departSpeed="max" arrivalLane="2" arrivalPos="140.31">
        <route edges="edge0 edge1"/>
    </vehicle>
    <vehicle id="-flow-random-route-c676cbe1-2b1e-432e-8aec-2027b9bcf818--5533509833722107260-7-0.1" type="actor-car--7596067854889985177" depart="120.00" departLane="0" departPos="32.24" departSpeed="max" arrivalLane="1" arrivalPos="93.11">
        <route edges="edge1 edge0"/>
    </vehicle>
    <vehicle id="-flow-random-route-cfe19b82-dd07-47f9-af8e-81831d2e7ddb--5533509833722107260-22-0.1" type="actor-car--7596067854889985177" depart="120.00" departLane="1" departPos="212.88" departSpeed="max" arrivalLane="0" arrivalPos="33.96">
        <route edges="edge1 edge0"/>
    </vehicle>
    <vehicle id="-flow-random-route-e0f37a74-d96d-4f7f-a415-e48cf10a1601--5533509833722107260-0-0.1" type="actor-car--7596067854889985177" depart="120.00" departLane="2" departPos="151.73" departSpeed="max" arrivalLane="2" arrivalPos="175.37">
        <route edges="edge0 edge1"/>
    </vehicle>
    <vehicle id="-flow-random-route-f0e6281b-e678-4382-9ae9-f492469b7291--5533509833722107260-9-0.1" type="actor-car--7596067854889985177" depart="120.00" departLane="2" departPos="278.60" departSpeed="max" arrivalLane="0" arrivalPos="151.91">
        <route edges="edge1 edge0"/>
    </vehicle>
    <vehicle id="-flow-random-route-f98b15ba-e4dc-4b25-9418-be998d573edd--5533509833722107260-21-0.1" type="actor-car--7596067854889985177" depart="120.00" departLane="1" departPos="43.41" departSpeed="max" arrivalLane="1" arrivalPos="581.57">
        <route edges="edge0 edge1"/>
    </vehicle>
    <vehicle id="-flow-random-route-f99dcfd2-336e-4f41-8a17-a4c869032050--5533509833722107260-1-0.1" type="actor-car--7596067854889985177" depart="120.00" departLane="0" departPos="352.51" departSpeed="max" arrivalLane="0" arrivalPos="85.49">
        <route edges="edge1 edge0"/>
    </vehicle>
    <vehicle id="-flow-random-route-f9e030f8-f1e3-45fb-af20-785b9bb99a64--5533509833722107260-16-0.1" type="actor-car--7596067854889985177" depart="120.00" departLane="2" departPos="142.67" departSpeed="max" arrivalLane="2" arrivalPos="49.81">
        <route edges="edge0 edge1"/>
    </vehicle>
    <vehicle id="-flow-random-route-041223c6-33a3-4693-b7c7-850c122ee0d1--5533509833722107260-28-0.2" type="actor-car--7596067854889985177" depart="240.00" departLane="1" departPos="33.33" departSpeed="max" arrivalLane="2" arrivalPos="361.30">
        <route edges="edge0 edge1"/>
    </vehicle>
    <vehicle id="-flow-random-route-0cb46dbf-6ca0-4b76-b230-ce01672464f4--5533509833722107260-10-0.2" type="actor-car--7596067854889985177" depart="240.00" departLane="2" departPos="8.25" departSpeed="max" arrivalLane="2" arrivalPos="686.49">
        <route edges="edge0 edge1"/>
    </vehicle>
    <vehicle id="-flow-random-route-10339ebf-0162-4c17-8fd7-99fbd34ad35a--5533509833722107260-5-0.2" type="actor-car--7596067854889985177" depart="240.00" departLane="2" departPos="98.32" departSpeed="max" arrivalLane="1" arrivalPos="220.55">
        <route edges="edge0 edge1"/>
    </vehicle>
    <vehicle id="-flow-random-route-10e6007d-2e55-47ee-a48b-021cb3e79f2a--5533509833722107260-19-0.2" type="actor-car--7596067854889985177" depart="240.00" departLane="0" departPos="88.22" departSpeed="max" arrivalLane="2" arrivalPos="42.52">
        <route edges="edge0 edge1"/>
    </vehicle>
    <vehicle id="-flow-random-route-1407eb78-ab15-42b4-abb9-e11f79415da4--5533509833722107260-2-0.2" type="actor-car--7596067854889985177" depart="240.00" departLane="2" departPos="20.15" departSpeed="max" arrivalLane="2" arrivalPos="401.93">
        <route edges="edge0 edge1"/>
    </vehicle>
    <vehicle id="-flow-random-route-168836be-098c-492d-ac4d-fffe4bc32a7b--5533509833722107260-3-0.2" type="actor-car--7596067854889985177" depart="240.00" departLane="2" departPos="116.06" departSpeed="max" arrivalLane="2" arrivalPos="636.59">
        <route edges="edge0 edge1"/>
    </vehicle>
    <vehicle id="-flow-random-route-1955d9cc-aec2-4c95-a2f5-af048abfc88b--5533509833722107260-17-0.2" type="actor-car--7596067854889985177" depart="240.00" departLane="1" departPos="167.03" departSpeed="max" arrivalLane="0" arrivalPos="133.74">
        <route edges="edge1 edge0"/>
    </vehicle>
    <vehicle id="-flow-random-route-20ca7e3d-569d-43d2-8565-dd782e922d43--5533509833722107260-18-0.2" type="actor-car--7596067854889985177" depart="240.00" departLane="1" departPos="83.63" departSpeed="max" arrivalLane="2" arrivalPos="37.50">
        <route edges="edge1 edge0"/>
    </vehicle>
    <vehicle id="-flow-random-route-355e6d08-86ff-48fd-84df-1a92a721306d--5533509833722107260-23-0.2" type="actor-car--7596067854889985177" depart="240.00" departLane="0" departPos="131.70" departSpeed="max" arrivalLane="0" arrivalPos="114.84">
        <route edges="edge0 edge1"/>
    </vehicle>
    <vehicle id="-flow-random-route-3755e36d-3854-464d-beb2-ae63ed42a902--5533509833722107260-27-0.2" type="actor-car--7596067854889985177" depart="240.00" departLane="0" departPos="112.19" departSpeed="max" arrivalLane="1" arrivalPos="545.75">
        <route edges="edge0 edge1"/>
    </vehicle>
    <vehicle id="-flow-random-route-40ab2756-61df-4645-bacd-71c8ee0c1dde--5533509833722107260-11-0.2" type="actor-car--7596067854889985177" depart="240.00" departLane="2" departPos="386.38" departSpeed="max" arrivalLane="2" arrivalPos="33.54">
        <route edges="edge1 edge0"/>
    </vehicle>
    <vehicle id="-flow-random-route-422f5cab-b857-4e16-9664-97458ebd5ce0--5533509833722107260-14-0.2" type="actor-car--7596067854889985177" depart="240.00" departLane="2" departPos="645.63" departSpeed="max" arrivalLane="2" arrivalPos="104.62">
        <route edges="edge1 edge0"/>
    </vehicle>
    <vehicle id="-flow-random-route-43a45d2b-85f4-4275-a118-4e2475cfee8d--5533509833722107260-15-0.2" type="actor-car--7596067854889985177" depart="240.00" departLane="1" departPos="27.20" departSpeed="max" arrivalLane="1" arrivalPos="26.69">
        <route edges="edge0 edge1"/>
    </vehicle>
    <vehicle id="-flow-random-route-43ab69e8-e4ed-44f0-bddf-0f6e2a1da6a4--5533509833722107260-25-0.2" type="actor-car--7596067854889985177" depart="240.00" departLane="1" departPos="71.30" departSpeed="max" arrivalLane="1" arrivalPos="14.73">
        <route edges="edge1 edge0"/>
    </vehicle>
    <vehicle id="-flow-random-route-546075fe-b021-49bb-b702-cfa2fdcb1e1f--5533509833722107260-29-0.2" type="actor-car--7596067854889985177" depart="240.00" departLane="1" departPos="61.11" departSpeed="max" arrivalLane="0" arrivalPos="147.17">
        <route edges="edge0 edge1"/>
    </vehicle>
    <vehicle id="-flow-random-route-6d523f77-b711-43de-9320-d018efd0f004--5533509833722107260-8-0.2" type="actor-car--7596067854889985177" depart="240.00" departLane="1" departPos="254.36" departSpeed="max" arrivalLane="0" arrivalPos="136.92">
        <route edges="edge1 edge0"/>
    </vehicle>
    <vehicle id="-flow-random-route-6e323f7e-5d84-40c4-be11-94237f64812b--5533509833722107260-26-0.2" type="actor-car--7596067854889985177" depart="240.00" departLane="2" departPos="683.45" departSpeed="max" arrivalLane="0" arrivalPos="112.90">
        <route edges="edge1 edge0"/>
    </vehicle>
    <vehicle id="-flow-random-route-7880ca68-cb2e-4c08-8e57-1fba3be46a4b--5533509833722107260-13-0.2" type="actor-car--7596067854889985177" depart="240.00" departLane="2" departPos="146.92" departSpeed="max" arrivalLane="1" arrivalPos="31.01">
        <route edges="edge1 edge0"/>
    </vehicle>
    <vehicle id="-flow-random-route-7e91ea72-c8c5-4cf3-a008-16ff17102990--5533509833722107260-20-0.2" type="actor-car--7596067854889985177" depart="240.00" departLane="0" departPos="42.43" departSpeed="max" arrivalLane="0" arrivalPos="609.99">
        <route edges="edge0 edge1"/>
    </vehicle>
    <vehicle id="-flow-random-route-95aa3042-e73c-443c-b568-3762f5d69fe3--5533509833722107260-24-0.2" type="actor-car--7596067854889985177" depart="240.00" departLane="1" departPos="106.20" departSpeed="max" arrivalLane="2" arrivalPos="88.79">
        <route edges="edge0 edge1"/>
    </vehicle>
    <vehicle id="-flow-random-route-97bcd281-b832-4559-b49c-cbafe556dedb--5533509833722107260-6-0.2" type="actor-car--7596067854889985177" depart="240.00" departLane="1" departPos="308.16" departSpeed="max" arrivalLane="2" arrivalPos="32.55">
        <route edges="edge1 edge0"/>
    </vehicle>
    <vehicle id="-flow-random-route-98b24fcb-78c8-4ee4-9886-946e6dbe00da--5533509833722107260-12-0.2" type="actor-car--7596067854889985177" depart="240.00" departLane="0" departPos="461.26" departSpeed="max" arrivalLane="1" arrivalPos="150.07">
        <route edges="edge1 edge0"/>
    </vehicle>
    <vehicle id="-flow-random-route-aee65b00-7564-498a-85f6-1663d972e836--5533509833722107260-4-0.2" type="actor-car--7596067854889985177" depart="240.00" departLane="2" departPos="115.04" departSpeed="max" arrivalLane="2" arrivalPos="140.31">
        <route edges="edge0 edge1"/>
    </vehicle>
    <vehicle id="-flow-random-route-c676cbe1-2b1e-432e-8aec-2027b9bcf818--5533509833722107260-7-0.2" type="actor-car--7596067854889985177" depart="240.00" departLane="0" departPos="32.24" departSpeed="max" arrivalLane="1" arrivalPos="93.11">
        <route edges="edge1 edge0"/>
    </vehicle>
    <vehicle id="-flow-random-route-cfe19b82-dd07-47f9-af8e-81831d2e7ddb--5533509833722107260-22-0.2" type="actor-car--7596067854889985177" depart="240.00" departLane="1" departPos="212.88" departSpeed="max" arrivalLane="0" arrivalPos="33.96">
        <route edges="edge1 edge0"/>
    </vehicle>
    <vehicle id="-flow-random-route-e0f37a74-d96d-4f7f-a415-e48cf10a1601--5533509833722107260-0-0.2" type="actor-car--7596067854889985177" depart="240.00" departLane="2" departPos="151.73" departSpeed="max" arrivalLane="2" arrivalPos="175.37">
        <route edges="edge0 edge1"/>
    </vehicle>
    <vehicle id="-flow-random-route-f0e6281b-e678-4382-9ae9-f492469b7291--5533509833722107260-9-0.2" type="actor-car--7596067854889985177" depart="240.00" departLane="2" departPos="278.60" departSpeed="max" arrivalLane="0" arrivalPos="151.91">
        <route edges="edge1 edge0"/>
    </vehicle>
    <vehicle id="-flow-random-route-f98b15ba-e4dc-4b25-9418-be998d573edd--5533509833722107260-21-0.2" type="actor-car--7596067854889985177" depart="240.00" departLane="1" departPos="43.41" departSpeed="max" arrivalLane="1" arrivalPos="581.57">
        <route edges="edge0 edge1"/>
    </vehicle>
    <vehicle id="-flow-random-route-f99dcfd2-336e-4f41-8a17-a4c869032050--5533509833722107260-1-0.2" type="actor-car--7596067854889985177" depart="240.00" departLane="0" departPos="352.51" departSpeed="max" arrivalLane="0" arrivalPos="85.49">
        <route edges="edge1 edge0"/>
    </vehicle>
    <vehicle id="-flow-random-route-f9e030f8-f1e3-45fb-af20-785b9bb99a64--5533509833722107260-16-0.2" type="actor-car--7596067854889985177" depart="240.00" departLane="2" departPos="142.67" departSpeed="max" arrivalLane="2" arrivalPos="49.81">
        <route edges="edge0 edge1"/>
    </vehicle>
    <vehicle id="-flow-random-route-041223c6-33a3-4693-b7c7-850c122ee0d1--5533509833722107260-28-0.3" type="actor-car--7596067854889985177" depart="360.00" departLane="1" departPos="33.33" departSpeed="max" arrivalLane="2" arrivalPos="361.30">
        <route edges="edge0 edge1"/>
    </vehicle>
    <vehicle id="-flow-random-route-0cb46dbf-6ca0-4b76-b230-ce01672464f4--5533509833722107260-10-0.3" type="actor-car--7596067854889985177" depart="360.00" departLane="2" departPos="8.25" departSpeed="max" arrivalLane="2" arrivalPos="686.49">
        <route edges="edge0 edge1"/>
    </vehicle>
    <vehicle id="-flow-random-route-10339ebf-0162-4c17-8fd7-99fbd34ad35a--5533509833722107260-5-0.3" type="actor-car--7596067854889985177" depart="360.00" departLane="2" departPos="98.32" departSpeed="max" arrivalLane="1" arrivalPos="220.55">
        <route edges="edge0 edge1"/>
    </vehicle>
    <vehicle id="-flow-random-route-10e6007d-2e55-47ee-a48b-021cb3e79f2a--5533509833722107260-19-0.3" type="actor-car--7596067854889985177" depart="360.00" departLane="0" departPos="88.22" departSpeed="max" arrivalLane="2" arrivalPos="42.52">
        <route edges="edge0 edge1"/>
    </vehicle>
    <vehicle id="-flow-random-route-1407eb78-ab15-42b4-abb9-e11f79415da4--5533509833722107260-2-0.3" type="actor-car--7596067854889985177" depart="360.00" departLane="2" departPos="20.15" departSpeed="max" arrivalLane="2" arrivalPos="401.93">
        <route edges="edge0 edge1"/>
    </vehicle>
    <vehicle id="-flow-random-route-168836be-098c-492d-ac4d-fffe4bc32a7b--5533509833722107260-3-0.3" type="actor-car--7596067854889985177" depart="360.00" departLane="2" departPos="116.06" departSpeed="max" arrivalLane="2" arrivalPos="636.59">
        <route edges="edge0 edge1"/>
    </vehicle>
    <vehicle id="-flow-random-route-1955d9cc-aec2-4c95-a2f5-af048abfc88b--5533509833722107260-17-0.3" type="actor-car--7596067854889985177" depart="360.00" departLane="1" departPos="167.03" departSpeed="max" arrivalLane="0" arrivalPos="133.74">