<?xml version="1.0" encoding="UTF-8"?>

<!-- generated on Sun Aug 16 11:47:18 2020 by Eclipse SUMO duarouter Version 1.6.0
<configuration xmlns:xsi="http://www.w3.org/2001/XMLSchema-instance" xsi:noNamespaceSchemaLocation="http://sumo.dlr.de/xsd/duarouterConfiguration.xsd">

    <input>
        <net-file value="dataset_public/sharp_loop/sharploop_a/map.net.xml"/>
        <route-files value="/tmp/tmpcbz7vd_c/trips.trips.xml"/>
    </input>

    <output>
        <output-file value="dataset_public/sharp_loop/sharploop_a/traffic/30_patient_car.rou.xml"/>
        <alternatives-output value="dataset_public/sharp_loop/sharploop_a/traffic/30_patient_car.rou.alt.xml"/>
    </output>

    <processing>
        <unsorted-input value="true"/>
        <repair value="true"/>
    </processing>

    <report>
        <error-log value="/tmp/smarts/_duarouter_routing/traffic/30_patient_car.log"/>
        <no-step-log value="true"/>
    </report>

    <random_number>
        <seed value="42"/>
    </random_number>

</configuration>
-->

<routes xmlns:xsi="http://www.w3.org/2001/XMLSchema-instance" xsi:noNamespaceSchemaLocation="http://sumo.dlr.de/xsd/routes_file.xsd">
    <vType id="actor-car-2169310728318457416" minGap="2.50" speedFactor="normc(0.50,0.20,0.20,2.00)" vClass="passenger" impatience="0.50" lcCooperative="0.5" lcImpatience="0" jmDriveAfterYellowTime="1.0" accel="2.6" decel="4.5" sigma="0.5"/>
    <vehicle id="-flow-random-route-121f32e4-1808-4897-96b3-d005df859680-1931015996308900244-1-0.0" type="actor-car-2169310728318457416" depart="0.00" departLane="1" departPos="254.36" departSpeed="max" arrivalLane="0" arrivalPos="136.92">
        <route edges="edge1 edge0"/>
    </vehicle>
    <vehicle id="-flow-random-route-1929280e-8084-4193-bf4e-9e08b599687c-1931015996308900244-22-0.0" type="actor-car-2169310728318457416" depart="0.00" departLane="2" departPos="115.04" departSpeed="max" arrivalLane="2" arrivalPos="140.31">
        <route edges="edge0 edge1"/>
    </vehicle>
    <vehicle id="-flow-random-route-1d86a852-0b6f-448d-8488-c130afda7c69-1931015996308900244-25-0.0" type="actor-car-2169310728318457416" depart="0.00" departLane="1" departPos="33.33" departSpeed="max" arrivalLane="2" arrivalPos="361.30">
        <route edges="edge0 edge1"/>
    </vehicle>
    <vehicle id="-flow-random-route-42757eeb-6149-4b49-a973-0b16db521100-1931015996308900244-2-0.0" type="actor-car-2169310728318457416" depart="0.00" departLane="2" departPos="278.60" departSpeed="max" arrivalLane="0" arrivalPos="151.91">
        <route edges="edge1 edge0"/>
    </vehicle>
    <vehicle id="-flow-random-route-4667ad95-7fe1-4ff2-a6a1-b099094369a2-1931015996308900244-27-0.0" type="actor-car-2169310728318457416" depart="0.00" departLane="1" departPos="308.16" departSpeed="max" arrivalLane="2" arrivalPos="32.55">
        <route edges="edge1 edge0"/>
    </vehicle>
    <vehicle id="-flow-random-route-4731e817-b367-46db-a3c7-07b46344e4ea-1931015996308900244-15-0.0" type="actor-car-2169310728318457416" depart="0.00" departLane="1" departPos="83.63" departSpeed="max" arrivalLane="2" arrivalPos="37.50">
        <route edges="edge1 edge0"/>
    </vehicle>
    <vehicle id="-flow-random-route-4fba3491-60e4-4262-b646-295651963d81-1931015996308900244-4-0.0" type="actor-car-2169310728318457416" depart="0.00" departLane="2" departPos="146.92" departSpeed="max" arrivalLane="1" arrivalPos="31.01">
        <route edges="edge1 edge0"/>
    </vehicle>
    <vehicle id="-flow-random-route-56cb9d97-9f28-404e-ae17-1fd5db37d5f7-1931015996308900244-29-0.0" type="actor-car-2169310728318457416" depart="0.00" departLane="2" departPos="142.67" departSpeed="max" arrivalLane="2" arrivalPos="49.81">
        <route edges="edge0 edge1"/>
    </vehicle>
    <vehicle id="-flow-random-route-63f5176e-6552-492e-8480-d54f0b69f06e-1931015996308900244-13-0.0" type="actor-car-2169310728318457416" depart="0.00" departLane="1" departPos="167.03" departSpeed="max" arrivalLane="0" arrivalPos="133.74">
        <route edges="edge1 edge0"/>
    </vehicle>
    <vehicle id="-flow-random-route-6427544d-1bad-4025-ba97-4027803caae3-1931015996308900244-28-0.0" type="actor-car-2169310728318457416" depart="0.00" departLane="2" departPos="20.15" departSpeed="max" arrivalLane="2" arrivalPos="401.93">
        <route edges="edge0 edge1"/>
    </vehicle>
    <vehicle id="-flow-random-route-68711b45-55e3-4e29-adb1-b43493e82b13-1931015996308900244-11-0.0" type="actor-car-2169310728318457416" depart="0.00" departLane="0" departPos="112.19" departSpeed="max" arrivalLane="1" arrivalPos="545.75">
        <route edges="edge0 edge1"/>
    </vehicle>
    <vehicle id="-flow-random-route-6bcf579f-28d4-4b46-981c-242f026ac947-1931015996308900244-3-0.0" type="actor-car-2169310728318457416" depart="0.00" departLane="0" departPos="42.43" departSpeed="max" arrivalLane="0" arrivalPos="609.99">
        <route edges="edge0 edge1"/>
    </vehicle>
    <vehicle id="-flow-random-route-75390d7d-b0fa-418a-9d7a-6a442b1c5824-1931015996308900244-12-0.0" type="actor-car-2169310728318457416" depart="0.00" departLane="0" departPos="352.51" departSpeed="max" arrivalLane="0" arrivalPos="85.49">
        <route edges="edge1 edge0"/>
    </vehicle>
    <vehicle id="-flow-random-route-7b135b64-0f46-43e9-bdab-89b25b93fa04-1931015996308900244-8-0.0" type="actor-car-2169310728318457416" depart="0.00" departLane="0" departPos="88.22" departSpeed="max" arrivalLane="2" arrivalPos="42.52">
        <route edges="edge0 edge1"/>
    </vehicle>
    <vehicle id="-flow-random-route-839f26b8-eba7-4d91-82f5-7a5652719e91-1931015996308900244-23-0.0" type="actor-car-2169310728318457416" depart="0.00" departLane="2" departPos="645.63" departSpeed="max" arrivalLane="2" arrivalPos="104.62">
        <route edges="edge1 edge0"/>
    </vehicle>
    <vehicle id="-flow-random-route-8587b8db-023a-4b47-99fc-66f51d8e2e93-1931015996308900244-7-0.0" type="actor-car-2169310728318457416" depart="0.00" departLane="0" departPos="131.70" departSpeed="max" arrivalLane="0" arrivalPos="114.84">
        <route edges="edge0 edge1"/>
    </vehicle>
    <vehicle id="-flow-random-route-8f2a83ef-b5e7-4125-9687-926eb3fbc58a-1931015996308900244-6-0.0" type="actor-car-2169310728318457416" depart="0.00" departLane="1" departPos="27.20" departSpeed="max" arrivalLane="1" arrivalPos="26.69">
        <route edges="edge0 edge1"/>
    </vehicle>
    <vehicle id="-flow-random-route-8fd699c1-d146-415a-9642-15368baca1c4-1931015996308900244-16-0.0" type="actor-car-2169310728318457416" depart="0.00" departLane="2" departPos="98.32" departSpeed="max" arrivalLane="1" arrivalPos="220.55">
        <route edges="edge0 edge1"/>
    </vehicle>
    <vehicle id="-flow-random-route-9723400a-8151-4202-872e-eb5ecae9bb90-1931015996308900244-24-0.0" type="actor-car-2169310728318457416" depart="0.00" departLane="1" departPos="106.20" departSpeed="max" arrivalLane="2" arrivalPos="88.79">
        <route edges="edge0 edge1"/>
    </vehicle>
    <vehicle id="-flow-random-route-9f734eb8-d3a9-45d7-8380-e76528a8fae5-1931015996308900244-18-0.0" type="actor-car-2169310728318457416" depart="0.00" departLane="0" departPos="461.26" departSpeed="max" arrivalLane="1" arrivalPos="150.07">
        <route edges="edge1 edge0"/>
    </vehicle>
    <vehicle id="-flow-random-route-9fed7a63-5a0c-4c54-b988-470caf9c391a-1931015996308900244-26-0.0" type="actor-car-2169310728318457416" depart="0.00" departLane="1" departPos="212.88" departSpeed="max" arrivalLane="0" arrivalPos="33.96">
        <route edges="edge1 edge0"/>
    </vehicle>
    <vehicle id="-flow-random-route-aa02f62b-2a0d-42e2-b104-d48cee4194ab-1931015996308900244-21-0.0" type="actor-car-2169310728318457416" depart="0.00" departLane="2" departPos="8.25" departSpeed="max" arrivalLane="2" arrivalPos="686.49">
        <route edges="edge0 edge1"/>
    </vehicle>
    <vehicle id="-flow-random-route-b8bb5884-b2f6-42f5-b9c1-b24bdba5b61a-1931015996308900244-10-0.0" type="actor-car-2169310728318457416" depart="0.00" departLane="2" departPos="151.73" departSpeed="max" arrivalLane="2" arrivalPos="175.37">
        <route edges="edge0 edge1"/>
    </vehicle>
    <vehicle id="-flow-random-route-bd64fd20-f1d5-4388-a3f7-5e403b0c8488-1931015996308900244-20-0.0" type="actor-car-2169310728318457416" depart="0.00" departLane="2" departPos="386.38" departSpeed="max" arrivalLane="2" arrivalPos="33.54">
        <route edges="edge1 edge0"/>
    </vehicle>
    <vehicle id="-flow-random-route-d4a2daaf-bfa6-4f0a-922c-f6c3df5b4840-1931015996308900244-9-0.0" type="actor-car-2169310728318457416" depart="0.00" departLane="0" departPos="32.24" departSpeed="max" arrivalLane="1" arrivalPos="93.11">
        <route edges="edge1 edge0"/>
    </vehicle>
    <vehicle id="-flow-random-route-d92a4c64-3a70-4438-9329-8e63cec36b6b-1931015996308900244-0-0.0" type="actor-car-2169310728318457416" depart="0.00" departLane="2" departPos="683.45" departSpeed="max" arrivalLane="0" arrivalPos="112.90">
        <route edges="edge1 edge0"/>
    </vehicle>
    <vehicle id="-flow-random-route-e1ec54d6-2ed7-4c7d-aac8-2c30967416bf-1931015996308900244-19-0.0" type="actor-car-2169310728318457416" depart="0.00" departLane="1" departPos="61.11" departSpeed="max" arrivalLane="0" arrivalPos="147.17">
        <route edges="edge0 edge1"/>
    </vehicle>
    <vehicle id="-flow-random-route-e5839741-bc62-4222-8926-ad47b2555e1c-1931015996308900244-17-0.0" type="actor-car-2169310728318457416" depart="0.00" departLane="2" departPos="116.06" departSpeed="max" arrivalLane="2" arrivalPos="636.59">
        <route edges="edge0 edge1"/>
    </vehicle>
    <vehicle id="-flow-random-route-ec431bf2-cdaa-4db2-a0ce-48fef440844b-1931015996308900244-5-0.0" type="actor-car-2169310728318457416" depart="0.00" departLane="1" departPos="71.30" departSpeed="max" arrivalLane="1" arrivalPos="14.73">
        <route edges="edge1 edge0"/>
    </vehicle>
    <vehicle id="-flow-random-route-f331a664-732f-4477-a6f1-a7b6eee88d54-1931015996308900244-14-0.0" type="actor-car-2169310728318457416" depart="0.00" departLane="1" departPos="43.41" departSpeed="max" arrivalLane="1" arrivalPos="581.57">
        <route edges="edge0 edge1"/>
    </vehicle>
    <vehicle id="-flow-random-route-121f32e4-1808-4897-96b3-d005df859680-1931015996308900244-1-0.1" type="actor-car-2169310728318457416" depart="120.00" departLane="1" departPos="254.36" departSpeed="max" arrivalLane="0" arrivalPos="136.92">
        <route edges="edge1 edge0"/>
    </vehicle>
    <vehicle id="-flow-random-route-1929280e-8084-4193-bf4e-9e08b599687c-1931015996308900244-22-0.1" type="actor-car-2169310728318457416" depart="120.00" departLane="2" departPos="115.04" departSpeed="max" arrivalLane="2" arrivalPos="140.31">
        <route edges="edge0 edge1"/>
    </vehicle>
    <vehicle id="-flow-random-route-1d86a852-0b6f-448d-8488-c130afda7c69-1931015996308900244-25-0.1" type="actor-car-2169310728318457416" depart="120.00" departLane="1" departPos="33.33" departSpeed="max" arrivalLane="2" arrivalPos="361.30">
        <route edges="edge0 edge1"/>
    </vehicle>
    <vehicle id="-flow-random-route-42757eeb-6149-4b49-a973-0b16db521100-1931015996308900244-2-0.1" type="actor-car-2169310728318457416" depart="120.00" departLane="2" departPos="278.60" departSpeed="max" arrivalLane="0" arrivalPos="151.91">
        <route edges="edge1 edge0"/>
    </vehicle>
    <vehicle id="-flow-random-route-4667ad95-7fe1-4ff2-a6a1-b099094369a2-1931015996308900244-27-0.1" type="actor-car-2169310728318457416" depart="120.00" departLane="1" departPos="308.16" departSpeed="max" arrivalLane="2" arrivalPos="32.55">
        <route edges="edge1 edge0"/>
    </vehicle>
    <vehicle id="-flow-random-route-4731e817-b367-46db-a3c7-07b46344e4ea-1931015996308900244-15-0.1" type="actor-car-2169310728318457416" depart="120.00" departLane="1" departPos="83.63" departSpeed="max" arrivalLane="2" arrivalPos="37.50">
        <route edges="edge1 edge0"/>
    </vehicle>
    <vehicle id="-flow-random-route-4fba3491-60e4-4262-b646-295651963d81-1931015996308900244-4-0.1" type="actor-car-2169310728318457416" depart="120.00" departLane="2" departPos="146.92" departSpeed="max" arrivalLane="1" arrivalPos="31.01">
        <route edges="edge1 edge0"/>
    </vehicle>
    <vehicle id="-flow-random-route-56cb9d97-9f28-404e-ae17-1fd5db37d5f7-1931015996308900244-29-0.1" type="actor-car-2169310728318457416" depart="120.00" departLane="2" departPos="142.67" departSpeed="max" arrivalLane="2" arrivalPos="49.81">
        <route edges="edge0 edge1"/>
    </vehicle>
    <vehicle id="-flow-random-route-63f5176e-6552-492e-8480-d54f0b69f06e-1931015996308900244-13-0.1" type="actor-car-2169310728318457416" depart="120.00" departLane="1" departPos="167.03" departSpeed="max" arrivalLane="0" arrivalPos="133.74">
        <route edges="edge1 edge0"/>
    </vehicle>
    <vehicle id="-flow-random-route-6427544d-1bad-4025-ba97-4027803caae3-1931015996308900244-28-0.1" type="actor-car-2169310728318457416" depart="120.00" departLane="2" departPos="20.15" departSpeed="max" arrivalLane="2" arrivalPos="401.93">
        <route edges="edge0 edge1"/>
    </vehicle>
    <vehicle id="-flow-random-route-68711b45-55e3-4e29-adb1-b43493e82b13-1931015996308900244-11-0.1" type="actor-car-2169310728318457416" depart="120.00" departLane="0" departPos="112.19" departSpeed="max" arrivalLane="1" arrivalPos="545.75">
        <route edges="edge0 edge1"/>
    </vehicle>
    <vehicle id="-flow-random-route-6bcf579f-28d4-4b46-981c-242f026ac947-1931015996308900244-3-0.1" type="actor-car-2169310728318457416" depart="120.00" departLane="0" departPos="42.43" departSpeed="max" arrivalLane="0" arrivalPos="609.99">
        <route edges="edge0 edge1"/>
    </vehicle>
    <vehicle id="-flow-random-route-75390d7d-b0fa-418a-9d7a-6a442b1c5824-1931015996308900244-12-0.1" type="actor-car-2169310728318457416" depart="120.00" departLane="0" departPos="352.51" departSpeed="max" arrivalLane="0" arrivalPos="85.49">
        <route edges="edge1 edge0"/>
    </vehicle>
    <vehicle id="-flow-random-route-7b135b64-0f46-43e9-bdab-89b25b93fa04-1931015996308900244-8-0.1" type="actor-car-2169310728318457416" depart="120.00" departLane="0" departPos="88.22" departSpeed="max" arrivalLane="2" arrivalPos="42.52">
        <route edges="edge0 edge1"/>
    </vehicle>
    <vehicle id="-flow-random-route-839f26b8-eba7-4d91-82f5-7a5652719e91-1931015996308900244-23-0.1" type="actor-car-2169310728318457416" depart="120.00" departLane="2" departPos="645.63" departSpeed="max" arrivalLane="2" arrivalPos="104.62">
        <route edges="edge1 edge0"/>
    </vehicle>
    <vehicle id="-flow-random-route-8587b8db-023a-4b47-99fc-66f51d8e2e93-1931015996308900244-7-0.1" type="actor-car-2169310728318457416" depart="120.00" departLane="0" departPos="131.70" departSpeed="max" arrivalLane="0" arrivalPos="114.84">
        <route edges="edge0 edge1"/>
    </vehicle>
    <vehicle id="-flow-random-route-8f2a83ef-b5e7-4125-9687-926eb3fbc58a-1931015996308900244-6-0.1" type="actor-car-2169310728318457416" depart="120.00" departLane="1" departPos="27.20" departSpeed="max" arrivalLane="1" arrivalPos="26.69">
        <route edges="edge0 edge1"/>
    </vehicle>
    <vehicle id="-flow-random-route-8fd699c1-d146-415a-9642-15368baca1c4-1931015996308900244-16-0.1" type="actor-car-2169310728318457416" depart="120.00" departLane="2" departPos="98.32" departSpeed="max" arrivalLane="1" arrivalPos="220.55">
        <route edges="edge0 edge1"/>
    </vehicle>
    <vehicle id="-flow-random-route-9723400a-8151-4202-872e-eb5ecae9bb90-1931015996308900244-24-0.1" type="actor-car-2169310728318457416" depart="120.00" departLane="1" departPos="106.20" departSpeed="max" arrivalLane="2" arrivalPos="88.79">
        <route edges="edge0 edge1"/>
    </vehicle>
    <vehicle id="-flow-random-route-9f734eb8-d3a9-45d7-8380-e76528a8fae5-1931015996308900244-18-0.1" type="actor-car-2169310728318457416" depart="120.00" departLane="0" departPos="461.26" departSpeed="max" arrivalLane="1" arrivalPos="150.07">
        <route edges="edge1 edge0"/>
    </vehicle>
    <vehicle id="-flow-random-route-9fed7a63-5a0c-4c54-b988-470caf9c391a-1931015996308900244-26-0.1" type="actor-car-2169310728318457416" depart="120.00" departLane="1" departPos="212.88" departSpeed="max" arrivalLane="0" arrivalPos="33.96">
        <route edges="edge1 edge0"/>
    </vehicle>
    <vehicle id="-flow-random-route-aa02f62b-2a0d-42e2-b104-d48cee4194ab-1931015996308900244-21-0.1" type="actor-car-2169310728318457416" depart="120.00" departLane="2" departPos="8.25" departSpeed="max" arrivalLane="2" arrivalPos="686.49">
        <route edges="edge0 edge1"/>
    </vehicle>
    <vehicle id="-flow-random-route-b8bb5884-b2f6-42f5-b9c1-b24bdba5b61a-1931015996308900244-10-0.1" type="actor-car-2169310728318457416" depart="120.00" departLane="2" departPos="151.73" departSpeed="max" arrivalLane="2" arrivalPos="175.37">
        <route edges="edge0 edge1"/>
    </vehicle>
    <vehicle id="-flow-random-route-bd64fd20-f1d5-4388-a3f7-5e403b0c8488-1931015996308900244-20-0.1" type="actor-car-2169310728318457416" depart="120.00" departLane="2" departPos="386.38" departSpeed="max" arrivalLane="2" arrivalPos="33.54">
        <route edges="edge1 edge0"/>
    </vehicle>
    <vehicle id="-flow-random-route-d4a2daaf-bfa6-4f0a-922c-f6c3df5b4840-1931015996308900244-9-0.1" type="actor-car-2169310728318457416" depart="120.00" departLane="0" departPos="32.24" departSpeed="max" arrivalLane="1" arrivalPos="93.11">
        <route edges="edge1 edge0"/>
    </vehicle>
    <vehicle id="-flow-random-route-d92a4c64-3a70-4438-9329-8e63cec36b6b-1931015996308900244-0-0.1" type="actor-car-2169310728318457416" depart="120.00" departLane="2" departPos="683.45" departSpeed="max" arrivalLane="0" arrivalPos="112.90">
        <route edges="edge1 edge0"/>
    </vehicle>
    <vehicle id="-flow-random-route-e1ec54d6-2ed7-4c7d-aac8-2c30967416bf-1931015996308900244-19-0.1" type="actor-car-2169310728318457416" depart="120.00" departLane="1" departPos="61.11" departSpeed="max" arrivalLane="0" arrivalPos="147.17">
        <route edges="edge0 edge1"/>
    </vehicle>
    <vehicle id="-flow-random-route-e5839741-bc62-4222-8926-ad47b2555e1c-1931015996308900244-17-0.1" type="actor-car-2169310728318457416" depart="120.00" departLane="2" departPos="116.06" departSpeed="max" arrivalLane="2" arrivalPos="636.59">
        <route edges="edge0 edge1"/>
    </vehicle>
    <vehicle id="-flow-random-route-ec431bf2-cdaa-4db2-a0ce-48fef440844b-1931015996308900244-5-0.1" type="actor-car-2169310728318457416" depart="120.00" departLane="1" departPos="71.30" departSpeed="max" arrivalLane="1" arrivalPos="14.73">
        <route edges="edge1 edge0"/>
    </vehicle>
    <vehicle id="-flow-random-route-f331a664-732f-4477-a6f1-a7b6eee88d54-1931015996308900244-14-0.1" type="actor-car-2169310728318457416" depart="120.00" departLane="1" departPos="43.41" departSpeed="max" arrivalLane="1" arrivalPos="581.57">
        <route edges="edge0 edge1"/>
    </vehicle>
    <vehicle id="-flow-random-route-121f32e4-1808-4897-96b3-d005df859680-1931015996308900244-1-0.2" type="actor-car-2169310728318457416" depart="240.00" departLane="1" departPos="254.36" departSpeed="max" arrivalLane="0" arrivalPos="136.92">
        <route edges="edge1 edge0"/>
    </vehicle>
    <vehicle id="-flow-random-route-1929280e-8084-4193-bf4e-9e08b599687c-1931015996308900244-22-0.2" type="actor-car-2169310728318457416" depart="240.00" departLane="2" departPos="115.04" departSpeed="max" arrivalLane="2" arrivalPos="140.31">
        <route edges="edge0 edge1"/>
    </vehicle>
    <vehicle id="-flow-random-route-1d86a852-0b6f-448d-8488-c130afda7c69-1931015996308900244-25-0.2" type="actor-car-2169310728318457416" depart="240.00" departLane="1" departPos="33.33" departSpeed="max" arrivalLane="2" arrivalPos="361.30">
        <route edges="edge0 edge1"/>
    </vehicle>
    <vehicle id="-flow-random-route-42757eeb-6149-4b49-a973-0b16db521100-1931015996308900244-2-0.2" type="actor-car-2169310728318457416" depart="240.00" departLane="2" departPos="278.60" departSpeed="max" arrivalLane="0" arrivalPos="151.91">
        <route edges="edge1 edge0"/>
    </vehicle>
    <vehicle id="-flow-random-route-4667ad95-7fe1-4ff2-a6a1-b099094369a2-1931015996308900244-27-0.2" type="actor-car-2169310728318457416" depart="240.00" departLane="1" departPos="308.16" departSpeed="max" arrivalLane="2" arrivalPos="32.55">
        <route edges="edge1 edge0"/>
    </vehicle>
    <vehicle id="-flow-random-route-4731e817-b367-46db-a3c7-07b46344e4ea-1931015996308900244-15-0.2" type="actor-car-2169310728318457416" depart="240.00" departLane="1" departPos="83.63" departSpeed="max" arrivalLane="2" arrivalPos="37.50">
        <route edges="edge1 edge0"/>
    </vehicle>
    <vehicle id="-flow-random-route-4fba3491-60e4-4262-b646-295651963d81-1931015996308900244-4-0.2" type="actor-car-2169310728318457416" depart="240.00" departLane="2" departPos="146.92" departSpeed="max" arrivalLane="1" arrivalPos="31.01">
        <route edges="edge1 edge0"/>
    </vehicle>
    <vehicle id="-flow-random-route-56cb9d97-9f28-404e-ae17-1fd5db37d5f7-1931015996308900244-29-0.2" type="actor-car-2169310728318457416" depart="240.00" departLane="2" departPos="142.67" departSpeed="max" arrivalLane="2" arrivalPos="49.81">
        <route edges="edge0 edge1"/>
    </vehicle>
    <vehicle id="-flow-random-route-63f5176e-6552-492e-8480-d54f0b69f06e-1931015996308900244-13-0.2" type="actor-car-2169310728318457416" depart="240.00" departLane="1" departPos="167.03" departSpeed="max" arrivalLane="0" arrivalPos="133.74">
        <route edges="edge1 edge0"/>
    </vehicle>
    <vehicle id="-flow-random-route-6427544d-1bad-4025-ba97-4027803caae3-1931015996308900244-28-0.2" type="actor-car-2169310728318457416" depart="240.00" departLane="2" departPos="20.15" departSpeed="max" arrivalLane="2" arrivalPos="401.93">
        <route edges="edge0 edge1"/>
    </vehicle>
    <vehicle id="-flow-random-route-68711b45-55e3-4e29-adb1-b43493e82b13-1931015996308900244-11-0.2" type="actor-car-2169310728318457416" depart="240.00" departLane="0" departPos="112.19" departSpeed="max" arrivalLane="1" arrivalPos="545.75">
        <route edges="edge0 edge1"/>
    </vehicle>
    <vehicle id="-flow-random-route-6bcf579f-28d4-4b46-981c-242f026ac947-1931015996308900244-3-0.2" type="actor-car-2169310728318457416" depart="240.00" departLane="0" departPos="42.43" departSpeed="max" arrivalLane="0" arrivalPos="609.99">
        <route edges="edge0 edge1"/>
    </vehicle>
    <vehicle id="-flow-random-route-75390d7d-b0fa-418a-9d7a-6a442b1c5824-1931015996308900244-12-0.2" type="actor-car-2169310728318457416" depart="240.00" departLane="0" departPos="352.51" departSpeed="max" arrivalLane="0" arrivalPos="85.49">
        <route edges="edge1 edge0"/>
    </vehicle>
    <vehicle id="-flow-random-route-7b135b64-0f46-43e9-bdab-89b25b93fa04-1931015996308900244-8-0.2" type="actor-car-2169310728318457416" depart="240.00" departLane="0" departPos="88.22" departSpeed="max" arrivalLane="2" arrivalPos="42.52">
        <route edges="edge0 edge1"/>
    </vehicle>
    <vehicle id="-flow-random-route-839f26b8-eba7-4d91-82f5-7a5652719e91-1931015996308900244-23-0.2" type="actor-car-2169310728318457416" depart="240.00" departLane="2" departPos="645.63" departSpeed="max" arrivalLane="2" arrivalPos="104.62">
        <route edges="edge1 edge0"/>
    </vehicle>
    <vehicle id="-flow-random-route-8587b8db-023a-4b47-99fc-66f51d8e2e93-1931015996308900244-7-0.2" type="actor-car-2169310728318457416" depart="240.00" departLane="0" departPos="131.70" departSpeed="max" arrivalLane="0" arrivalPos="114.84">
        <route edges="edge0 edge1"/>
    </vehicle>
    <vehicle id="-flow-random-route-8f2a83ef-b5e7-4125-9687-926eb3fbc58a-1931015996308900244-6-0.2" type="actor-car-2169310728318457416" depart="240.00" departLane="1" departPos="27.20" departSpeed="max" arrivalLane="1" arrivalPos="26.69">
        <route edges="edge0 edge1"/>
    </vehicle>
    <vehicle id="-flow-random-route-8fd699c1-d146-415a-9642-15368baca1c4-1931015996308900244-16-0.2" type="actor-car-2169310728318457416" depart="240.00" departLane="2" departPos="98.32" departSpeed="max" arrivalLane="1" arrivalPos="220.55">
        <route edges="edge0 edge1"/>
    </vehicle>
    <vehicle id="-flow-random-route-9723400a-8151-4202-872e-eb5ecae9bb90-1931015996308900244-24-0.2" type="actor-car-2169310728318457416" depart="240.00" departLane="1" departPos="106.20" departSpeed="max" arrivalLane="2" arrivalPos="88.79">
        <route edges="edge0 edge1"/>
    </vehicle>
    <vehicle id="-flow-random-route-9f734eb8-d3a9-45d7-8380-e76528a8fae5-1931015996308900244-18-0.2" type="actor-car-2169310728318457416" depart="240.00" departLane="0" departPos="461.26" departSpeed="max" arrivalLane="1" arrivalPos="150.07">
        <route edges="edge1 edge0"/>
    </vehicle>
    <vehicle id="-flow-random-route-9fed7a63-5a0c-4c54-b988-470caf9c391a-1931015996308900244-26-0.2" type="actor-car-2169310728318457416" depart="240.00" departLane="1" departPos="212.88" departSpeed="max" arrivalLane="0" arrivalPos="33.96">
        <route edges="edge1 edge0"/>
    </vehicle>
    <vehicle id="-flow-random-route-aa02f62b-2a0d-42e2-b104-d48cee4194ab-1931015996308900244-21-0.2" type="actor-car-2169310728318457416" depart="240.00" departLane="2" departPos="8.25" departSpeed="max" arrivalLane="2" arrivalPos="686.49">
        <route edges="edge0 edge1"/>
    </vehicle>
    <vehicle id="-flow-random-route-b8bb5884-b2f6-42f5-b9c1-b24bdba5b61a-1931015996308900244-10-0.2" type="actor-car-2169310728318457416" depart="240.00" departLane="2" departPos="151.73" departSpeed="max" arrivalLane="2" arrivalPos="175.37">
        <route edges="edge0 edge1"/>
    </vehicle>
    <vehicle id="-flow-random-route-bd64fd20-f1d5-4388-a3f7-5e403b0c8488-1931015996308900244-20-0.2" type="actor-car-2169310728318457416" depart="240.00" departLane="2" departPos="386.38" departSpeed="max" arrivalLane="2" arrivalPos="33.54">
        <route edges="edge1 edge0"/>
    </vehicle>
    <vehicle id="-flow-random-route-d4a2daaf-bfa6-4f0a-922c-f6c3df5b4840-1931015996308900244-9-0.2" type="actor-car-2169310728318457416" depart="240.00" departLane="0" departPos="32.24" departSpeed="max" arrivalLane="1" arrivalPos="93.11">
        <route edges="edge1 edge0"/>
    </vehicle>
    <vehicle id="-flow-random-route-d92a4c64-3a70-4438-9329-8e63cec36b6b-1931015996308900244-0-0.2" type="actor-car-2169310728318457416" depart="240.00" departLane="2" departPos="683.45" departSpeed="max" arrivalLane="0" arrivalPos="112.90">
        <route edges="edge1 edge0"/>
    </vehicle>
    <vehicle id="-flow-random-route-e1ec54d6-2ed7-4c7d-aac8-2c30967416bf-1931015996308900244-19-0.2" type="actor-car-2169310728318457416" depart="240.00" departLane="1" departPos="61.11" departSpeed="max" arrivalLane="0" arrivalPos="147.17">
        <route edges="edge0 edge1"/>
    </vehicle>
    <vehicle id="-flow-random-route-e5839741-bc62-4222-8926-ad47b2555e1c-1931015996308900244-17-0.2" type="actor-car-2169310728318457416" depart="240.00" departLane="2" departPos="116.06" departSpeed="max" arrivalLane="2" arrivalPos="636.59">
        <route edges="edge0 edge1"/>
    </vehicle>
    <vehicle id="-flow-random-route-ec431bf2-cdaa-4db2-a0ce-48fef440844b-1931015996308900244-5-0.2" type="actor-car-2169310728318457416" depart="240.00" departLane="1" departPos="71.30" departSpeed="max" arrivalLane="1" arrivalPos="14.73">
        <route edges="edge1 edge0"/>
    </vehicle>
    <vehicle id="-flow-random-route-f331a664-732f-4477-a6f1-a7b6eee88d54-1931015996308900244-14-0.2" type="actor-car-2169310728318457416" depart="240.00" departLane="1" departPos="43.41" departSpeed="max" arrivalLane="1" arrivalPos="581.57">
        <route edges="edge0 edge1"/>
    </vehicle>
    <vehicle id="-flow-random-route-121f32e4-1808-4897-96b3-d005df859680-1931015996308900244-1-0.3" type="actor-car-2169310728318457416" depart="360.00" departLane="1" departPos="254.36" departSpeed="max" arrivalLane="0" arrivalPos="136.92">
        <route edges="edge1 edge0"/>
    </vehicle>
    <vehicle id="-flow-random-route-1929280e-8084-4193-bf4e-9e08b599687c-1931015996308900244-22-0.3" type="actor-car-2169310728318457416" depart="360.00" departLane="2" departPos="115.04" departSpeed="max" arrivalLane="2" arrivalPos="140.31">
        <route edges="edge0 edge1"/>
    </vehicle>
    <vehicle id="-flow-random-route-1d86a852-0b6f-448d-8488-c130afda7c69-1931015996308900244-25-0.3" type="actor-car-2169310728318457416" depart="360.00" departLane="1" departPos="33.33" departSpeed="max" arrivalLane="2" arrivalPos="361.30">
        <route edges="edge0 edge1"/>
    </vehicle>
    <vehicle id="-flow-random-route-42757eeb-6149-4b49-a973-0b16db521100-1931015996308900244-2-0.3" type="actor-car-2169310728318457416" depart="360.00" departLane="2" departPos="278.60" departSpeed="max" arrivalLane="0" arrivalPos="151.91">
        <route edges="edge1 edge0"/>
    </vehicle>
    <vehicle id="-flow-random-route-4667ad95-7fe1-4ff2-a6a1-b099094369a2-1931015996308900244-27-0.3" type="actor-car-2169310728318457416" depart="360.00" departLane="1" departPos="308.16" departSpeed="max" arrivalLane="2" arrivalPos="32.55">
        <route edges="edge1 edge0"/>
    </vehicle>
    <vehicle id="-flow-random-route-4731e817-b367-46db-a3c7-07b46344e4ea-1931015996308900244-15-0.3" type="actor-car-2169310728318457416" depart="360.00" departLane="1" departPos="83.63" departSpeed="max" arrivalLane="2" arrivalPos="37.50">
        <route edges="edge1 edge0"/>
    </vehicle>
    <vehicle id="-flow-random-route-4fba3491-60e4-4262-b646-295651963d81-1931015996308900244-4-0.3" type="actor-car-2169310728318457416" depart="360.00" departLane="2" departPos="146.92" departSpeed="max" arrivalLane="1" arrivalPos="31.01">
        <route edges="edge1 edge0"/>
    </vehicle>