<?xml version="1.0" encoding="UTF-8"?>

<!-- generated on Fri Aug 21 07:53:08 2020 by Eclipse SUMO duarouter Version 1.6.0
<configuration xmlns:xsi="http://www.w3.org/2001/XMLSchema-instance" xsi:noNamespaceSchemaLocation="http://sumo.dlr.de/xsd/duarouterConfiguration.xsd">

    <input>
        <net-file value="dataset_public/sharp_loop/sharploop_a/map.net.xml"/>
        <route-files value="/tmp/tmpssvoy9tv/trips.trips.xml"/>
    </input>

    <output>
        <output-file value="dataset_public/sharp_loop/sharploop_a/traffic/30_patient_car.rou.xml"/>
        <alternatives-output value="dataset_public/sharp_loop/sharploop_a/traffic/30_patient_car.rou.alt.xml"/>
    </output>

    <processing>
        <unsorted-input value="true"/>
        <repair value="true"/>
    </processing>

    <report>
        <error-log value="/tmp/smarts/_duarouter_routing/traffic/30_patient_car.log"/>
        <no-step-log value="true"/>
    </report>

    <random_number>
        <seed value="42"/>
    </random_number>

</configuration>
-->

<routes xmlns:xsi="http://www.w3.org/2001/XMLSchema-instance" xsi:noNamespaceSchemaLocation="http://sumo.dlr.de/xsd/routes_file.xsd">
    <vType id="actor-car-7503770049880858186" minGap="2.50" speedFactor="normc(0.50,0.20,0.20,2.00)" vClass="passenger" impatience="0.50" lcCooperative="0.5" lcImpatience="0" jmDriveAfterYellowTime="1.0" accel="2.6" decel="4.5" sigma="0.5"/>
    <vehicle id="-flow-random-route-05ba42a7-eced-49bf-9700-8609fe16bce6-2769388443756131426-1-0.0" type="actor-car-7503770049880858186" depart="0.00" departLane="2" departPos="142.67" departSpeed="max" arrivalLane="2" arrivalPos="49.81">
        <route edges="edge0 edge1"/>
    </vehicle>
    <vehicle id="-flow-random-route-0c845d5f-4128-454a-b3cb-cc2e4f3f5078-2769388443756131426-28-0.0" type="actor-car-7503770049880858186" depart="0.00" departLane="2" departPos="645.63" departSpeed="max" arrivalLane="2" arrivalPos="104.62">
        <route edges="edge1 edge0"/>
    </vehicle>
    <vehicle id="-flow-random-route-30bdf3a3-8f70-4277-aba8-83b2df31faa3-2769388443756131426-6-0.0" type="actor-car-7503770049880858186" depart="0.00" departLane="1" departPos="33.33" departSpeed="max" arrivalLane="2" arrivalPos="361.30">
        <route edges="edge0 edge1"/>
    </vehicle>
    <vehicle id="-flow-random-route-397c1d3e-5902-4649-91f5-4c7132b36b71-2769388443756131426-19-0.0" type="actor-car-7503770049880858186" depart="0.00" departLane="2" departPos="278.60" departSpeed="max" arrivalLane="0" arrivalPos="151.91">
        <route edges="edge1 edge0"/>
    </vehicle>
    <vehicle id="-flow-random-route-40cf4950-c607-4c58-8ae7-de1b9d0d00b1-2769388443756131426-11-0.0" type="actor-car-7503770049880858186" depart="0.00" departLane="1" departPos="308.16" departSpeed="max" arrivalLane="2" arrivalPos="32.55">
        <route edges="edge1 edge0"/>
    </vehicle>
    <vehicle id="-flow-random-route-447cb3a2-0bbf-47a8-abc0-fba70caaaad0-2769388443756131426-4-0.0" type="actor-car-7503770049880858186" depart="0.00" departLane="1" departPos="27.20" departSpeed="max" arrivalLane="1" arrivalPos="26.69">
        <route edges="edge0 edge1"/>
    </vehicle>
    <vehicle id="-flow-random-route-4baafa3e-befa-4832-99d4-8579234e6e65-2769388443756131426-26-0.0" type="actor-car-7503770049880858186" depart="0.00" departLane="1" departPos="61.11" departSpeed="max" arrivalLane="0" arrivalPos="147.17">
        <route edges="edge0 edge1"/>
    </vehicle>
    <vehicle id="-flow-random-route-543a90df-f76b-404e-bc9b-f242ebe42e4c-2769388443756131426-13-0.0" type="actor-car-7503770049880858186" depart="0.00" departLane="2" departPos="386.38" departSpeed="max" arrivalLane="2" arrivalPos="33.54">
        <route edges="edge1 edge0"/>
    </vehicle>
    <vehicle id="-flow-random-route-57306126-225e-4c24-909c-16aabb25a24b-2769388443756131426-16-0.0" type="actor-car-7503770049880858186" depart="0.00" departLane="0" departPos="32.24" departSpeed="max" arrivalLane="1" arrivalPos="93.11">
        <route edges="edge1 edge0"/>
    </vehicle>
    <vehicle id="-flow-random-route-5dd329ba-074f-48fa-80d4-6d1efa65a015-2769388443756131426-24-0.0" type="actor-car-7503770049880858186" depart="0.00" departLane="0" departPos="112.19" departSpeed="max" arrivalLane="1" arrivalPos="545.75">
        <route edges="edge0 edge1"/>
    </vehicle>
    <vehicle id="-flow-random-route-61873186-bf87-4129-8670-0e2a5dc0d655-2769388443756131426-8-0.0" type="actor-car-7503770049880858186" depart="0.00" departLane="0" departPos="352.51" departSpeed="max" arrivalLane="0" arrivalPos="85.49">
        <route edges="edge1 edge0"/>
    </vehicle>
    <vehicle id="-flow-random-route-6891ba51-2f2b-424f-b599-07b2b77e236e-2769388443756131426-12-0.0" type="actor-car-7503770049880858186" depart="0.00" departLane="0" departPos="461.26" departSpeed="max" arrivalLane="1" arrivalPos="150.07">
        <route edges="edge1 edge0"/>
    </vehicle>
    <vehicle id="-flow-random-route-6fe6a429-bb38-416c-9e5a-832ce416103c-2769388443756131426-25-0.0" type="actor-car-7503770049880858186" depart="0.00" departLane="2" departPos="98.32" departSpeed="max" arrivalLane="1" arrivalPos="220.55">
        <route edges="edge0 edge1"/>
    </vehicle>
    <vehicle id="-flow-random-route-7222c859-1fa6-4217-816d-e71d51dbd58b-2769388443756131426-14-0.0" type="actor-car-7503770049880858186" depart="0.00" departLane="1" departPos="83.63" departSpeed="max" arrivalLane="2" arrivalPos="37.50">
        <route edges="edge1 edge0"/>
    </vehicle>
    <vehicle id="-flow-random-route-74bbd59e-1b38-4f05-a522-c48030d500d4-2769388443756131426-17-0.0" type="actor-car-7503770049880858186" depart="0.00" departLane="1" departPos="167.03" departSpeed="max" arrivalLane="0" arrivalPos="133.74">
        <route edges="edge1 edge0"/>
    </vehicle>
    <vehicle id="-flow-random-route-952a475a-1f72-4bc9-8dcc-dca545e1c5d3-2769388443756131426-2-0.0" type="actor-car-7503770049880858186" depart="0.00" departLane="0" departPos="42.43" departSpeed="max" arrivalLane="0" arrivalPos="609.99">
        <route edges="edge0 edge1"/>
    </vehicle>
    <vehicle id="-flow-random-route-99e24d3d-451c-4785-b820-2dd7ff808429-2769388443756131426-21-0.0" type="actor-car-7503770049880858186" depart="0.00" departLane="1" departPos="254.36" departSpeed="max" arrivalLane="0" arrivalPos="136.92">
        <route edges="edge1 edge0"/>
    </vehicle>
    <vehicle id="-flow-random-route-9d758017-c780-4257-952a-bc5051b18a12-2769388443756131426-9-0.0" type="actor-car-7503770049880858186" depart="0.00" departLane="2" departPos="683.45" departSpeed="max" arrivalLane="0" arrivalPos="112.90">
        <route edges="edge1 edge0"/>
    </vehicle>
    <vehicle id="-flow-random-route-b2d8c0d0-ad5b-40b5-9e6d-618862bfb6d6-2769388443756131426-29-0.0" type="actor-car-7503770049880858186" depart="0.00" departLane="2" departPos="116.06" departSpeed="max" arrivalLane="2" arrivalPos="636.59">
        <route edges="edge0 edge1"/>
    </vehicle>
    <vehicle id="-flow-random-route-bd7b5b41-86fc-4054-acb7-50387d7375a4-2769388443756131426-23-0.0" type="actor-car-7503770049880858186" depart="0.00" departLane="2" departPos="20.15" departSpeed="max" arrivalLane="2" arrivalPos="401.93">
        <route edges="edge0 edge1"/>
    </vehicle>
    <vehicle id="-flow-random-route-cbc1d8df-4630-4849-a264-5b7a5b431df0-2769388443756131426-3-0.0" type="actor-car-7503770049880858186" depart="0.00" departLane="1" departPos="43.41" departSpeed="max" arrivalLane="1" arrivalPos="581.57">
        <route edges="edge0 edge1"/>
    </vehicle>
    <vehicle id="-flow-random-route-cf60ced1-6fa6-4837-80a5-e9ffe7c5aef4-2769388443756131426-7-0.0" type="actor-car-7503770049880858186" depart="0.00" departLane="0" departPos="88.22" departSpeed="max" arrivalLane="2" arrivalPos="42.52">
        <route edges="edge0 edge1"/>
    </vehicle>
    <vehicle id="-flow-random-route-d0962f5b-cd8c-43d0-8f70-44164d1e2193-2769388443756131426-15-0.0" type="actor-car-7503770049880858186" depart="0.00" departLane="0" departPos="131.70" departSpeed="max" arrivalLane="0" arrivalPos="114.84">
        <route edges="edge0 edge1"/>
    </vehicle>
    <vehicle id="-flow-random-route-de8f1d7c-e422-40ed-8066-f6bf1a6dfdf6-2769388443756131426-18-0.0" type="actor-car-7503770049880858186" depart="0.00" departLane="1" departPos="212.88" departSpeed="max" arrivalLane="0" arrivalPos="33.96">
        <route edges="edge1 edge0"/>
    </vehicle>
    <vehicle id="-flow-random-route-dfca9ea2-34af-414d-a1f9-7635d185bffc-2769388443756131426-27-0.0" type="actor-car-7503770049880858186" depart="0.00" departLane="2" departPos="151.73" departSpeed="max" arrivalLane="2" arrivalPos="175.37">
        <route edges="edge0 edge1"/>
    </vehicle>
    <vehicle id="-flow-random-route-e58be287-feaa-41c5-8b53-894e41220a83-2769388443756131426-5-0.0" type="actor-car-7503770049880858186" depart="0.00" departLane="1" departPos="71.30" departSpeed="max" arrivalLane="1" arrivalPos="14.73">
        <route edges="edge1 edge0"/>
    </vehicle>
    <vehicle id="-flow-random-route-e9bae36d-938b-4815-99f2-ea876aea8487-2769388443756131426-10-0.0" type="actor-car-7503770049880858186" depart="0.00" departLane="2" departPos="115.04" departSpeed="max" arrivalLane="2" arrivalPos="140.31">
        <route edges="edge0 edge1"/>
    </vehicle>
    <vehicle id="-flow-random-route-f1c7297f-30e4-40e7-a856-f353e0995368-2769388443756131426-0-0.0" type="actor-car-7503770049880858186" depart="0.00" departLane="2" departPos="146.92" departSpeed="max" arrivalLane="1" arrivalPos="31.01">
        <route edges="edge1 edge0"/>
    </vehicle>
    <vehicle id="-flow-random-route-f33a7e38-144d-4415-8abd-5636f0e41447-2769388443756131426-22-0.0" type="actor-car-7503770049880858186" depart="0.00" departLane="2" departPos="8.25" departSpeed="max" arrivalLane="2" arrivalPos="686.49">
        <route edges="edge0 edge1"/>
    </vehicle>
    <vehicle id="-flow-random-route-f359fd99-faf7-483d-82a7-4362ec3b937e-2769388443756131426-20-0.0" type="actor-car-7503770049880858186" depart="0.00" departLane="1" departPos="106.20" departSpeed="max" arrivalLane="2" arrivalPos="88.79">
        <route edges="edge0 edge1"/>
    </vehicle>
    <vehicle id="-flow-random-route-05ba42a7-eced-49bf-9700-8609fe16bce6-2769388443756131426-1-0.1" type="actor-car-7503770049880858186" depart="120.00" departLane="2" departPos="142.67" departSpeed="max" arrivalLane="2" arrivalPos="49.81">
        <route edges="edge0 edge1"/>
    </vehicle>
    <vehicle id="-flow-random-route-0c845d5f-4128-454a-b3cb-cc2e4f3f5078-2769388443756131426-28-0.1" type="actor-car-7503770049880858186" depart="120.00" departLane="2" departPos="645.63" departSpeed="max" arrivalLane="2" arrivalPos="104.62">
        <route edges="edge1 edge0"/>
    </vehicle>
    <vehicle id="-flow-random-route-30bdf3a3-8f70-4277-aba8-83b2df31faa3-2769388443756131426-6-0.1" type="actor-car-7503770049880858186" depart="120.00" departLane="1" departPos="33.33" departSpeed="max" arrivalLane="2" arrivalPos="361.30">
        <route edges="edge0 edge1"/>
    </vehicle>
    <vehicle id="-flow-random-route-397c1d3e-5902-4649-91f5-4c7132b36b71-2769388443756131426-19-0.1" type="actor-car-7503770049880858186" depart="120.00" departLane="2" departPos="278.60" departSpeed="max" arrivalLane="0" arrivalPos="151.91">
        <route edges="edge1 edge0"/>
    </vehicle>
    <vehicle id="-flow-random-route-40cf4950-c607-4c58-8ae7-de1b9d0d00b1-2769388443756131426-11-0.1" type="actor-car-7503770049880858186" depart="120.00" departLane="1" departPos="308.16" departSpeed="max" arrivalLane="2" arrivalPos="32.55">
        <route edges="edge1 edge0"/>
    </vehicle>
    <vehicle id="-flow-random-route-447cb3a2-0bbf-47a8-abc0-fba70caaaad0-2769388443756131426-4-0.1" type="actor-car-7503770049880858186" depart="120.00" departLane="1" departPos="27.20" departSpeed="max" arrivalLane="1" arrivalPos="26.69">
        <route edges="edge0 edge1"/>
    </vehicle>
    <vehicle id="-flow-random-route-4baafa3e-befa-4832-99d4-8579234e6e65-2769388443756131426-26-0.1" type="actor-car-7503770049880858186" depart="120.00" departLane="1" departPos="61.11" departSpeed="max" arrivalLane="0" arrivalPos="147.17">
        <route edges="edge0 edge1"/>
    </vehicle>
    <vehicle id="-flow-random-route-543a90df-f76b-404e-bc9b-f242ebe42e4c-2769388443756131426-13-0.1" type="actor-car-7503770049880858186" depart="120.00" departLane="2" departPos="386.38" departSpeed="max" arrivalLane="2" arrivalPos="33.54">
        <route edges="edge1 edge0"/>
    </vehicle>
    <vehicle id="-flow-random-route-57306126-225e-4c24-909c-16aabb25a24b-2769388443756131426-16-0.1" type="actor-car-7503770049880858186" depart="120.00" departLane="0" departPos="32.24" departSpeed="max" arrivalLane="1" arrivalPos="93.11">
        <route edges="edge1 edge0"/>
    </vehicle>
    <vehicle id="-flow-random-route-5dd329ba-074f-48fa-80d4-6d1efa65a015-2769388443756131426-24-0.1" type="actor-car-7503770049880858186" depart="120.00" departLane="0" departPos="112.19" departSpeed="max" arrivalLane="1" arrivalPos="545.75">
        <route edges="edge0 edge1"/>
    </vehicle>
    <vehicle id="-flow-random-route-61873186-bf87-4129-8670-0e2a5dc0d655-2769388443756131426-8-0.1" type="actor-car-7503770049880858186" depart="120.00" departLane="0" departPos="352.51" departSpeed="max" arrivalLane="0" arrivalPos="85.49">
        <route edges="edge1 edge0"/>
    </vehicle>
    <vehicle id="-flow-random-route-6891ba51-2f2b-424f-b599-07b2b77e236e-2769388443756131426-12-0.1" type="actor-car-7503770049880858186" depart="120.00" departLane="0" departPos="461.26" departSpeed="max" arrivalLane="1" arrivalPos="150.07">
        <route edges="edge1 edge0"/>
    </vehicle>
    <vehicle id="-flow-random-route-6fe6a429-bb38-416c-9e5a-832ce416103c-2769388443756131426-25-0.1" type="actor-car-7503770049880858186" depart="120.00" departLane="2" departPos="98.32" departSpeed="max" arrivalLane="1" arrivalPos="220.55">
        <route edges="edge0 edge1"/>
    </vehicle>
    <vehicle id="-flow-random-route-7222c859-1fa6-4217-816d-e71d51dbd58b-2769388443756131426-14-0.1" type="actor-car-7503770049880858186" depart="120.00" departLane="1" departPos="83.63" departSpeed="max" arrivalLane="2" arrivalPos="37.50">
        <route edges="edge1 edge0"/>
    </vehicle>
    <vehicle id="-flow-random-route-74bbd59e-1b38-4f05-a522-c48030d500d4-2769388443756131426-17-0.1" type="actor-car-7503770049880858186" depart="120.00" departLane="1" departPos="167.03" departSpeed="max" arrivalLane="0" arrivalPos="133.74">
        <route edges="edge1 edge0"/>
    </vehicle>
    <vehicle id="-flow-random-route-952a475a-1f72-4bc9-8dcc-dca545e1c5d3-2769388443756131426-2-0.1" type="actor-car-7503770049880858186" depart="120.00" departLane="0" departPos="42.43" departSpeed="max" arrivalLane="0" arrivalPos="609.99">
        <route edges="edge0 edge1"/>
    </vehicle>
    <vehicle id="-flow-random-route-99e24d3d-451c-4785-b820-2dd7ff808429-2769388443756131426-21-0.1" type="actor-car-7503770049880858186" depart="120.00" departLane="1" departPos="254.36" departSpeed="max" arrivalLane="0" arrivalPos="136.92">
        <route edges="edge1 edge0"/>
    </vehicle>
    <vehicle id="-flow-random-route-9d758017-c780-4257-952a-bc5051b18a12-2769388443756131426-9-0.1" type="actor-car-7503770049880858186" depart="120.00" departLane="2" departPos="683.45" departSpeed="max" arrivalLane="0" arrivalPos="112.90">
        <route edges="edge1 edge0"/>
    </vehicle>
    <vehicle id="-flow-random-route-b2d8c0d0-ad5b-40b5-9e6d-618862bfb6d6-2769388443756131426-29-0.1" type="actor-car-7503770049880858186" depart="120.00" departLane="2" departPos="116.06" departSpeed="max" arrivalLane="2" arrivalPos="636.59">
        <route edges="edge0 edge1"/>
    </vehicle>
    <vehicle id="-flow-random-route-bd7b5b41-86fc-4054-acb7-50387d7375a4-2769388443756131426-23-0.1" type="actor-car-7503770049880858186" depart="120.00" departLane="2" departPos="20.15" departSpeed="max" arrivalLane="2" arrivalPos="401.93">
        <route edges="edge0 edge1"/>
    </vehicle>
    <vehicle id="-flow-random-route-cbc1d8df-4630-4849-a264-5b7a5b431df0-2769388443756131426-3-0.1" type="actor-car-7503770049880858186" depart="120.00" departLane="1" departPos="43.41" departSpeed="max" arrivalLane="1" arrivalPos="581.57">
        <route edges="edge0 edge1"/>
    </vehicle>
    <vehicle id="-flow-random-route-cf60ced1-6fa6-4837-80a5-e9ffe7c5aef4-2769388443756131426-7-0.1" type="actor-car-7503770049880858186" depart="120.00" departLane="0" departPos="88.22" departSpeed="max" arrivalLane="2" arrivalPos="42.52">
        <route edges="edge0 edge1"/>
    </vehicle>
    <vehicle id="-flow-random-route-d0962f5b-cd8c-43d0-8f70-44164d1e2193-2769388443756131426-15-0.1" type="actor-car-7503770049880858186" depart="120.00" departLane="0" departPos="131.70" departSpeed="max" arrivalLane="0" arrivalPos="114.84">
        <route edges="edge0 edge1"/>
    </vehicle>
    <vehicle id="-flow-random-route-de8f1d7c-e422-40ed-8066-f6bf1a6dfdf6-2769388443756131426-18-0.1" type="actor-car-7503770049880858186" depart="120.00" departLane="1" departPos="212.88" departSpeed="max" arrivalLane="0" arrivalPos="33.96">
        <route edges="edge1 edge0"/>
    </vehicle>
    <vehicle id="-flow-random-route-dfca9ea2-34af-414d-a1f9-7635d185bffc-2769388443756131426-27-0.1" type="actor-car-7503770049880858186" depart="120.00" departLane="2" departPos="151.73" departSpeed="max" arrivalLane="2" arrivalPos="175.37">
        <route edges="edge0 edge1"/>
    </vehicle>
    <vehicle id="-flow-random-route-e58be287-feaa-41c5-8b53-894e41220a83-2769388443756131426-5-0.1" type="actor-car-7503770049880858186" depart="120.00" departLane="1" departPos="71.30" departSpeed="max" arrivalLane="1" arrivalPos="14.73">
        <route edges="edge1 edge0"/>
    </vehicle>
    <vehicle id="-flow-random-route-e9bae36d-938b-4815-99f2-ea876aea8487-2769388443756131426-10-0.1" type="actor-car-7503770049880858186" depart="120.00" departLane="2" departPos="115.04" departSpeed="max" arrivalLane="2" arrivalPos="140.31">
        <route edges="edge0 edge1"/>
    </vehicle>
    <vehicle id="-flow-random-route-f1c7297f-30e4-40e7-a856-f353e0995368-2769388443756131426-0-0.1" type="actor-car-7503770049880858186" depart="120.00" departLane="2" departPos="146.92" departSpeed="max" arrivalLane="1" arrivalPos="31.01">
        <route edges="edge1 edge0"/>
    </vehicle>
    <vehicle id="-flow-random-route-f33a7e38-144d-4415-8abd-5636f0e41447-2769388443756131426-22-0.1" type="actor-car-7503770049880858186" depart="120.00" departLane="2" departPos="8.25" departSpeed="max" arrivalLane="2" arrivalPos="686.49">
        <route edges="edge0 edge1"/>
    </vehicle>
    <vehicle id="-flow-random-route-f359fd99-faf7-483d-82a7-4362ec3b937e-2769388443756131426-20-0.1" type="actor-car-7503770049880858186" depart="120.00" departLane="1" departPos="106.20" departSpeed="max" arrivalLane="2" arrivalPos="88.79">
        <route edges="edge0 edge1"/>
    </vehicle>
    <vehicle id="-flow-random-route-05ba42a7-eced-49bf-9700-8609fe16bce6-2769388443756131426-1-0.2" type="actor-car-7503770049880858186" depart="240.00" departLane="2" departPos="142.67" departSpeed="max" arrivalLane="2" arrivalPos="49.81">
        <route edges="edge0 edge1"/>
    </vehicle>
    <vehicle id="-flow-random-route-0c845d5f-4128-454a-b3cb-cc2e4f3f5078-2769388443756131426-28-0.2" type="actor-car-7503770049880858186" depart="240.00" departLane="2" departPos="645.63" departSpeed="max" arrivalLane="2" arrivalPos="104.62">
        <route edges="edge1 edge0"/>
    </vehicle>
    <vehicle id="-flow-random-route-30bdf3a3-8f70-4277-aba8-83b2df31faa3-2769388443756131426-6-0.2" type="actor-car-7503770049880858186" depart="240.00" departLane="1" departPos="33.33" departSpeed="max" arrivalLane="2" arrivalPos="361.30">
        <route edges="edge0 edge1"/>
    </vehicle>
    <vehicle id="-flow-random-route-397c1d3e-5902-4649-91f5-4c7132b36b71-2769388443756131426-19-0.2" type="actor-car-7503770049880858186" depart="240.00" departLane="2" departPos="278.60" departSpeed="max" arrivalLane="0" arrivalPos="151.91">
        <route edges="edge1 edge0"/>
    </vehicle>
    <vehicle id="-flow-random-route-40cf4950-c607-4c58-8ae7-de1b9d0d00b1-2769388443756131426-11-0.2" type="actor-car-7503770049880858186" depart="240.00" departLane="1" departPos="308.16" departSpeed="max" arrivalLane="2" arrivalPos="32.55">
        <route edges="edge1 edge0"/>
    </vehicle>
    <vehicle id="-flow-random-route-447cb3a2-0bbf-47a8-abc0-fba70caaaad0-2769388443756131426-4-0.2" type="actor-car-7503770049880858186" depart="240.00" departLane="1" departPos="27.20" departSpeed="max" arrivalLane="1" arrivalPos="26.69">
        <route edges="edge0 edge1"/>
    </vehicle>
    <vehicle id="-flow-random-route-4baafa3e-befa-4832-99d4-8579234e6e65-2769388443756131426-26-0.2" type="actor-car-7503770049880858186" depart="240.00" departLane="1" departPos="61.11" departSpeed="max" arrivalLane="0" arrivalPos="147.17">
        <route edges="edge0 edge1"/>
    </vehicle>
    <vehicle id="-flow-random-route-543a90df-f76b-404e-bc9b-f242ebe42e4c-2769388443756131426-13-0.2" type="actor-car-7503770049880858186" depart="240.00" departLane="2" departPos="386.38" departSpeed="max" arrivalLane="2" arrivalPos="33.54">
        <route edges="edge1 edge0"/>
    </vehicle>
    <vehicle id="-flow-random-route-57306126-225e-4c24-909c-16aabb25a24b-2769388443756131426-16-0.2" type="actor-car-7503770049880858186" depart="240.00" departLane="0" departPos="32.24" departSpeed="max" arrivalLane="1" arrivalPos="93.11">
        <route edges="edge1 edge0"/>
    </vehicle>
    <vehicle id="-flow-random-route-5dd329ba-074f-48fa-80d4-6d1efa65a015-2769388443756131426-24-0.2" type="actor-car-7503770049880858186" depart="240.00" departLane="0" departPos="112.19" departSpeed="max" arrivalLane="1" arrivalPos="545.75">
        <route edges="edge0 edge1"/>
    </vehicle>
    <vehicle id="-flow-random-route-61873186-bf87-4129-8670-0e2a5dc0d655-2769388443756131426-8-0.2" type="actor-car-7503770049880858186" depart="240.00" departLane="0" departPos="352.51" departSpeed="max" arrivalLane="0" arrivalPos="85.49">
        <route edges="edge1 edge0"/>
    </vehicle>
    <vehicle id="-flow-random-route-6891ba51-2f2b-424f-b599-07b2b77e236e-2769388443756131426-12-0.2" type="actor-car-7503770049880858186" depart="240.00" departLane="0" departPos="461.26" departSpeed="max" arrivalLane="1" arrivalPos="150.07">
        <route edges="edge1 edge0"/>
    </vehicle>
    <vehicle id="-flow-random-route-6fe6a429-bb38-416c-9e5a-832ce416103c-2769388443756131426-25-0.2" type="actor-car-7503770049880858186" depart="240.00" departLane="2" departPos="98.32" departSpeed="max" arrivalLane="1" arrivalPos="220.55">
        <route edges="edge0 edge1"/>
    </vehicle>
    <vehicle id="-flow-random-route-7222c859-1fa6-4217-816d-e71d51dbd58b-2769388443756131426-14-0.2" type="actor-car-7503770049880858186" depart="240.00" departLane="1" departPos="83.63" departSpeed="max" arrivalLane="2" arrivalPos="37.50">
        <route edges="edge1 edge0"/>
    </vehicle>
    <vehicle id="-flow-random-route-74bbd59e-1b38-4f05-a522-c48030d500d4-2769388443756131426-17-0.2" type="actor-car-7503770049880858186" depart="240.00" departLane="1" departPos="167.03" departSpeed="max" arrivalLane="0" arrivalPos="133.74">
        <route edges="edge1 edge0"/>
    </vehicle>
    <vehicle id="-flow-random-route-952a475a-1f72-4bc9-8dcc-dca545e1c5d3-2769388443756131426-2-0.2" type="actor-car-7503770049880858186" depart="240.00" departLane="0" departPos="42.43" departSpeed="max" arrivalLane="0" arrivalPos="609.99">
        <route edges="edge0 edge1"/>
    </vehicle>
    <vehicle id="-flow-random-route-99e24d3d-451c-4785-b820-2dd7ff808429-2769388443756131426-21-0.2" type="actor-car-7503770049880858186" depart="240.00" departLane="1" departPos="254.36" departSpeed="max" arrivalLane="0" arrivalPos="136.92">
        <route edges="edge1 edge0"/>
    </vehicle>
    <vehicle id="-flow-random-route-9d758017-c780-4257-952a-bc5051b18a12-2769388443756131426-9-0.2" type="actor-car-7503770049880858186" depart="240.00" departLane="2" departPos="683.45" departSpeed="max" arrivalLane="0" arrivalPos="112.90">
        <route edges="edge1 edge0"/>
    </vehicle>
    <vehicle id="-flow-random-route-b2d8c0d0-ad5b-40b5-9e6d-618862bfb6d6-2769388443756131426-29-0.2" type="actor-car-7503770049880858186" depart="240.00" departLane="2" departPos="116.06" departSpeed="max" arrivalLane="2" arrivalPos="636.59">
        <route edges="edge0 edge1"/>
    </vehicle>
    <vehicle id="-flow-random-route-bd7b5b41-86fc-4054-acb7-50387d7375a4-2769388443756131426-23-0.2" type="actor-car-7503770049880858186" depart="240.00" departLane="2" departPos="20.15" departSpeed="max" arrivalLane="2" arrivalPos="401.93">
        <route edges="edge0 edge1"/>
    </vehicle>
    <vehicle id="-flow-random-route-cbc1d8df-4630-4849-a264-5b7a5b431df0-2769388443756131426-3-0.2" type="actor-car-7503770049880858186" depart="240.00" departLane="1" departPos="43.41" departSpeed="max" arrivalLane="1" arrivalPos="581.57">
        <route edges="edge0 edge1"/>
    </vehicle>
    <vehicle id="-flow-random-route-cf60ced1-6fa6-4837-80a5-e9ffe7c5aef4-2769388443756131426-7-0.2" type="actor-car-7503770049880858186" depart="240.00" departLane="0" departPos="88.22" departSpeed="max" arrivalLane="2" arrivalPos="42.52">
        <route edges="edge0 edge1"/>
    </vehicle>
    <vehicle id="-flow-random-route-d0962f5b-cd8c-43d0-8f70-44164d1e2193-2769388443756131426-15-0.2" type="actor-car-7503770049880858186" depart="240.00" departLane="0" departPos="131.70" departSpeed="max" arrivalLane="0" arrivalPos="114.84">
        <route edges="edge0 edge1"/>
    </vehicle>
    <vehicle id="-flow-random-route-de8f1d7c-e422-40ed-8066-f6bf1a6dfdf6-2769388443756131426-18-0.2" type="actor-car-7503770049880858186" depart="240.00" departLane="1" departPos="212.88" departSpeed="max" arrivalLane="0" arrivalPos="33.96">
        <route edges="edge1 edge0"/>
    </vehicle>
    <vehicle id="-flow-random-route-dfca9ea2-34af-414d-a1f9-7635d185bffc-2769388443756131426-27-0.2" type="actor-car-7503770049880858186" depart="240.00" departLane="2" departPos="151.73" departSpeed="max" arrivalLane="2" arrivalPos="175.37">
        <route edges="edge0 edge1"/>
    </vehicle>
    <vehicle id="-flow-random-route-e58be287-feaa-41c5-8b53-894e41220a83-2769388443756131426-5-0.2" type="actor-car-7503770049880858186" depart="240.00" departLane="1" departPos="71.30" departSpeed="max" arrivalLane="1" arrivalPos="14.73">
        <route edges="edge1 edge0"/>
    </vehicle>
    <vehicle id="-flow-random-route-e9bae36d-938b-4815-99f2-ea876aea8487-2769388443756131426-10-0.2" type="actor-car-7503770049880858186" depart="240.00" departLane="2" departPos="115.04" departSpeed="max" arrivalLane="2" arrivalPos="140.31">
        <route edges="edge0 edge1"/>
    </vehicle>
    <vehicle id="-flow-random-route-f1c7297f-30e4-40e7-a856-f353e0995368-2769388443756131426-0-0.2" type="actor-car-7503770049880858186" depart="240.00" departLane="2" departPos="146.92" departSpeed="max" arrivalLane="1" arrivalPos="31.01">
        <route edges="edge1 edge0"/>
    </vehicle>
    <vehicle id="-flow-random-route-f33a7e38-144d-4415-8abd-5636f0e41447-2769388443756131426-22-0.2" type="actor-car-7503770049880858186" depart="240.00" departLane="2" departPos="8.25" departSpeed="max" arrivalLane="2" arrivalPos="686.49">
        <route edges="edge0 edge1"/>
    </vehicle>
    <vehicle id="-flow-random-route-f359fd99-faf7-483d-82a7-4362ec3b937e-2769388443756131426-20-0.2" type="actor-car-7503770049880858186" depart="240.00" departLane="1" departPos="106.20" departSpeed="max" arrivalLane="2" arrivalPos="88.79">
        <route edges="edge0 edge1"/>
    </vehicle>
    <vehicle id="-flow-random-route-05ba42a7-eced-49bf-9700-8609fe16bce6-2769388443756131426-1-0.3" type="actor-car-7503770049880858186" depart="360.00" departLane="2" departPos="142.67" departSpeed="max" arrivalLane="2" arrivalPos="49.81">
        <route edges="edge0 edge1"/>
    </vehicle>
    <vehicle id="-flow-random-route-0c845d5f-4128-454a-b3cb-cc2e4f3f5078-2769388443756131426-28-0.3" type="actor-car-7503770049880858186" depart="360.00" departLane="2" departPos="645.63" departSpeed="max" arrivalLane="2" arrivalPos="104.62">
        <route edges="edge1 edge0"/>
    </vehicle>
    <vehicle id="-flow-random-route-30bdf3a3-8f70-4277-aba8-83b2df31faa3-2769388443756131426-6-0.3" type="actor-car-7503770049880858186" depart="360.00" departLane="1" departPos="33.33" departSpeed="max" arrivalLane="2" arrivalPos="361.30">
        <route edges="edge0 edge1"/>
    </vehicle>
    <vehicle id="-flow-random-route-397c1d3e-5902-4649-91f5-4c7132b36b71-2769388443756131426-19-0.3" type="actor-car-7503770049880858186" depart="360.00" departLane="2" departPos="278.60" departSpeed="max" arrivalLane="0" arrivalPos="151.91">
        <route edges="edge1 edge0"/>
    </vehicle>
    <vehicle id="-flow-random-route-40cf4950-c607-4c58-8ae7-de1b9d0d00b1-2769388443756131426-11-0.3" type="actor-car-7503770049880858186" depart="360.00" departLane="1" departPos="308.16" departSpeed="max" arrivalLane="2" arrivalPos="32.55">
        <route edges="edge1 edge0"/>
    </vehicle>
    <vehicle id="-flow-random-route-447cb3a2-0bbf-47a8-abc0-fba70caaaad0-2769388443756131426-4-0.3" type="actor-car-7503770049880858186" depart="360.00" departLane="1" departPos="27.20" departSpeed="max" arrivalLane="1" arrivalPos="26.69">
        <route edges="edge0 edge1"/>
    </vehicle>
    <vehicle id="-flow-random-route-4baafa3e-befa-4832-99d4-8579234e6e65-2769388443756131426-26-0.3" type="actor-car-7503770049880858186" depart="360.00" departLane="1" departPos="61.11" departSpeed="max" arrivalLane="0" arrivalPos="147.17">
        <route edges="edge0 edge1"/>
    </vehicle>