<?xml version="1.0" encoding="UTF-8"?>

<!-- generated on Sun Aug 16 11:47:21 2020 by Eclipse SUMO duarouter Version 1.6.0
<configuration xmlns:xsi="http://www.w3.org/2001/XMLSchema-instance" xsi:noNamespaceSchemaLocation="http://sumo.dlr.de/xsd/duarouterConfiguration.xsd">

    <input>
        <net-file value="dataset_public/mixed_loop/roundabout_its_a/map.net.xml"/>
        <route-files value="/tmp/tmp6mjjo0b6/trips.trips.xml"/>
    </input>

    <output>
        <output-file value="dataset_public/mixed_loop/roundabout_its_a/traffic/30_patient_car.rou.xml"/>
        <alternatives-output value="dataset_public/mixed_loop/roundabout_its_a/traffic/30_patient_car.rou.alt.xml"/>
    </output>

    <processing>
        <unsorted-input value="true"/>
        <repair value="true"/>
    </processing>

    <report>
        <error-log value="/tmp/smarts/_duarouter_routing/traffic/30_patient_car.log"/>
        <no-step-log value="true"/>
    </report>

    <random_number>
        <seed value="42"/>
    </random_number>

</configuration>
-->

<routes xmlns:xsi="http://www.w3.org/2001/XMLSchema-instance" xsi:noNamespaceSchemaLocation="http://sumo.dlr.de/xsd/routes_file.xsd">
    <vType id="actor-car--4776865164531557794" minGap="2.50" speedFactor="normc(0.50,0.20,0.20,2.00)" vClass="passenger" impatience="0.50" lcCooperative="0.5" lcImpatience="0" jmDriveAfterYellowTime="1.0" accel="2.6" decel="4.5" sigma="0.5"/>
    <vehicle id="-flow-random-route-043e9b37-ff2d-4221-b3cd-8d837e74ab71-547798247891004171-3-0.0" type="actor-car--4776865164531557794" depart="0.00" departLane="0" departPos="42.41" departSpeed="max" arrivalLane="0" arrivalPos="14.36">
        <route edges="-gneE94 -gneE93 -gneE82 -gneE81 edge-east-EN edge-north-NW -gneE92 -gneE91 -gneE94 -gneE95"/>
    </vehicle>
    <vehicle id="-flow-random-route-124f29b5-1bd6-4ee2-b125-e61aa00da55a-547798247891004171-15-0.0" type="actor-car--4776865164531557794" depart="0.00" departLane="0" departPos="29.83" departSpeed="max" arrivalLane="0" arrivalPos="117.42">
        <route edges="edge-south-SE gneE81 gneE82 gneE93 gneE94 gneE91 gneE92 edge-west-WS gneE96 gneE97"/>
    </vehicle>
    <vehicle id="-flow-random-route-1404fc37-e58a-4b86-ba92-578105bf2b5e-547798247891004171-23-0.0" type="actor-car--4776865164531557794" depart="0.00" departLane="0" departPos="48.36" departSpeed="max" arrivalLane="0" arrivalPos="60.41">
        <route edges="gneE91 gneE92 edge-west-WS gneE96 gneE97 gneE98 -gneE82 -gneE81 edge-east-EN gneE95"/>
    </vehicle>
    <vehicle id="-flow-random-route-1cb4fc4a-6172-4979-9a8a-215d23fa6a16-547798247891004171-1-0.0" type="actor-car--4776865164531557794" depart="0.00" departLane="0" departPos="50.01" departSpeed="max" arrivalLane="0" arrivalPos="27.74">
        <route edges="-gneE92 -gneE91 -gneE94 -gneE95 edge-north-NW -gneE92 -gneE91 -gneE94 -gneE93 -gneE82"/>
    </vehicle>
    <vehicle id="-flow-random-route-2059ebdf-294a-4d64-ba40-b8f5c3472990-547798247891004171-20-0.0" type="actor-car--4776865164531557794" depart="0.00" departLane="0" departPos="67.74" departSpeed="max" arrivalLane="0" arrivalPos="1.57">
        <route edges="gneE82 gneE93 -gneE95 edge-north-NW edge-west-WS gneE96 gneE97 gneE98 -gneE82 -gneE81"/>
    </vehicle>
    <vehicle id="-flow-random-route-22b86345-e505-496f-8e1c-f404bafcd66e-547798247891004171-2-0.0" type="actor-car--4776865164531557794" depart="0.00" departLane="0" departPos="55.30" departSpeed="max" arrivalLane="0" arrivalPos="40.57">
        <route edges="edge-east-EN gneE95 -gneE93 -gneE82 -gneE81 edge-east-EN gneE95 gneE94 gneE91 gneE92"/>
    </vehicle>
    <vehicle id="-flow-random-route-2d2f2fbd-8d33-42f7-b5b0-902eb271fd5d-547798247891004171-28-0.0" type="actor-car--4776865164531557794" depart="0.00" departLane="0" departPos="25.55" departSpeed="max" arrivalLane="0" arrivalPos="81.07">
        <route edges="-gneE94 -gneE95 edge-north-NW edge-west-WS gneE96 gneE97 gneE98 gneE93 gneE94 gneE91"/>
    </vehicle>
    <vehicle id="-flow-random-route-4920a7c6-da2f-4ab2-9be3-0b4578d53577-547798247891004171-8-0.0" type="actor-car--4776865164531557794" depart="0.00" departLane="0" departPos="22.28" departSpeed="max" arrivalLane="0" arrivalPos="64.11">
        <route edges="gneE82 gneE93 gneE94 gneE91 gneE92 edge-west-WS"/>
    </vehicle>
    <vehicle id="-flow-random-route-4a5fbf97-76c5-4f30-9602-d3b7e17f69d5-547798247891004171-6-0.0" type="actor-car--4776865164531557794" depart="0.00" departLane="0" departPos="82.74" departSpeed="max" arrivalLane="0" arrivalPos="11.84">
        <route edges="gneE98 -gneE82"/>
    </vehicle>
    <vehicle id="-flow-random-route-562dd127-da24-4f12-9bd8-a3d72358412c-547798247891004171-11-0.0" type="actor-car--4776865164531557794" depart="0.00" departLane="1" departPos="12.47" departSpeed="max" arrivalLane="0" arrivalPos="47.16">
        <route edges="edge-east-EN edge-north-NW -gneE92 -gneE91 -gneE94 -gneE93 -gneE82 -gneE81 edge-east-EN gneE95"/>
    </vehicle>
    <vehicle id="-flow-random-route-5a9d3125-6466-436d-9659-600610839cf2-547798247891004171-18-0.0" type="actor-car--4776865164531557794" depart="0.00" departLane="0" departPos="30.87" departSpeed="max" arrivalLane="0" arrivalPos="48.51">
        <route edges="edge-north-NW -gneE92 -gneE91 -gneE94 -gneE95 edge-north-NW edge-west-WS gneE96 gneE97 gneE98"/>
    </vehicle>
    <vehicle id="-flow-random-route-622f67c2-732a-4dab-abdd-fd3d1abd7c53-547798247891004171-4-0.0" type="actor-car--4776865164531557794" depart="0.00" departLane="1" departPos="15.43" departSpeed="max" arrivalLane="0" arrivalPos="47.80">
        <route edges="edge-east-EN gneE95 gneE94 gneE91 gneE92 edge-west-WS edge-south-SE edge-east-EN edge-north-NW -gneE92"/>
    </vehicle>
    <vehicle id="-flow-random-route-67bb2ab1-5d2c-41ac-93fa-93f460f0ffb5-547798247891004171-10-0.0" type="actor-car--4776865164531557794" depart="0.00" departLane="0" departPos="71.04" departSpeed="max" arrivalLane="0" arrivalPos="42.44">
        <route edges="gneE98 gneE93 gneE94"/>
    </vehicle>
    <vehicle id="-flow-random-route-6ac99181-741a-4bbc-8810-0e8df7f8f79a-547798247891004171-12-0.0" type="actor-car--4776865164531557794" depart="0.00" departLane="0" departPos="107.50" departSpeed="max" arrivalLane="0" arrivalPos="68.96">
        <route edges="gneE96 gneE97"/>
    </vehicle>
    <vehicle id="-flow-random-route-6ca5575f-cc67-42e6-ac9d-ffe7e405ede6-547798247891004171-9-0.0" type="actor-car--4776865164531557794" depart="0.00" departLane="0" departPos="36.38" departSpeed="max" arrivalLane="0" arrivalPos="87.01">
        <route edges="-gneE91 -gneE94"/>
    </vehicle>
    <vehicle id="-flow-random-route-6de8efd9-f16f-489c-ab93-b7bb6567ec18-547798247891004171-27-0.0" type="actor-car--4776865164531557794" depart="0.00" departLane="0" departPos="95.35" departSpeed="max" arrivalLane="0" arrivalPos="93.70">
        <route edges="-gneE91 -gneE94"/>
    </vehicle>
    <vehicle id="-flow-random-route-6f2020da-aabc-436a-ae1a-47e20a598a1d-547798247891004171-16-0.0" type="actor-car--4776865164531557794" depart="0.00" departLane="0" departPos="6.90" departSpeed="max" arrivalLane="0" arrivalPos="16.24">
        <route edges="gneE81 gneE82 gneE93 -gneE95 edge-north-NW -gneE92 -gneE91 -gneE94 -gneE93 -gneE82"/>
    </vehicle>
    <vehicle id="-flow-random-route-6f7b93b8-9d99-4913-9d6a-cc7346744bdd-547798247891004171-19-0.0" type="actor-car--4776865164531557794" depart="0.00" departLane="0" departPos="40.48" departSpeed="max" arrivalLane="0" arrivalPos="12.69">
        <route edges="gneE91 gneE92 edge-west-WS gneE96 gneE97 gneE98 gneE93 -gneE95 edge-north-NW -gneE92"/>
    </vehicle>
    <vehicle id="-flow-random-route-837b8c94-5f64-486f-8b53-235cac5969a6-547798247891004171-13-0.0" type="actor-car--4776865164531557794" depart="0.00" departLane="0" departPos="12.00" departSpeed="max" arrivalLane="0" arrivalPos="2.18">
        <route edges="-gneE95 edge-north-NW edge-west-WS edge-south-SE gneE81 gneE82 gneE93 -gneE95 edge-north-NW -gneE92"/>
    </vehicle>
    <vehicle id="-flow-random-route-841b5c6b-4f09-4692-9346-f77b89826c6c-547798247891004171-29-0.0" type="actor-car--4776865164531557794" depart="0.00" departLane="0" departPos="53.67" departSpeed="max" arrivalLane="1" arrivalPos="40.32">
        <route edges="-gneE91 -gneE94 -gneE93 -gneE82 -gneE81 edge-east-EN"/>
    </vehicle>
    <vehicle id="-flow-random-route-85bd5e22-3615-48b7-846e-ec663809d5be-547798247891004171-5-0.0" type="actor-car--4776865164531557794" depart="0.00" departLane="0" departPos="27.93" departSpeed="max" arrivalLane="0" arrivalPos="5.24">
        <route edges="-gneE91 -gneE94"/>
    </vehicle>
    <vehicle id="-flow-random-route-97b1a024-7ca8-407e-a903-c2c34e339a70-547798247891004171-21-0.0" type="actor-car--4776865164531557794" depart="0.00" departLane="1" departPos="9.87" departSpeed="max" arrivalLane="0" arrivalPos="70.42">
        <route edges="edge-north-NW edge-west-WS edge-south-SE gneE81 gneE82 gneE93 -gneE95 edge-north-NW -gneE92 -gneE91"/>
    </vehicle>
    <vehicle id="-flow-random-route-a62fcfb1-f1d8-4ae3-80fa-a8c168dbaf86-547798247891004171-7-0.0" type="actor-car--4776865164531557794" depart="0.00" departLane="0" departPos="0.84" departSpeed="max" arrivalLane="0" arrivalPos="13.03">
        <route edges="gneE82 gneE93 -gneE95 edge-north-NW -gneE92"/>
    </vehicle>
    <vehicle id="-flow-random-route-a977c39a-724a-4c01-87e9-94910eee3afb-547798247891004171-0-0.0" type="actor-car--4776865164531557794" depart="0.00" departLane="1" departPos="20.84" departSpeed="max" arrivalLane="1" arrivalPos="39.52">
        <route edges="gneE96 gneE97 gneE98"/>
    </vehicle>
    <vehicle id="-flow-random-route-baada7ee-5a3a-4c67-9b5f-461ca978b0cf-547798247891004171-14-0.0" type="actor-car--4776865164531557794" depart="0.00" departLane="0" departPos="70.51" departSpeed="max" arrivalLane="0" arrivalPos="62.82">
        <route edges="-gneE94 -gneE93"/>
    </vehicle>
    <vehicle id="-flow-random-route-c69e7843-9373-4b71-a57e-34c254077c5f-547798247891004171-26-0.0" type="actor-car--4776865164531557794" depart="0.00" departLane="0" departPos="65.31" departSpeed="max" arrivalLane="0" arrivalPos="33.60">
        <route edges="gneE95 -gneE93 -gneE82 -gneE81 edge-east-EN gneE95 gneE94 gneE91 gneE92 edge-west-WS"/>
    </vehicle>
    <vehicle id="-flow-random-route-da819d84-1607-420d-b33e-a57f91a7dae6-547798247891004171-22-0.0" type="actor-car--4776865164531557794" depart="0.00" departLane="0" departPos="49.50" departSpeed="max" arrivalLane="0" arrivalPos="81.65">
        <route edges="-gneE95 edge-north-NW -gneE92 -gneE91 -gneE94"/>
    </vehicle>
    <vehicle id="-flow-random-route-e27311a3-2fd2-4899-bb48-14f3ab820388-547798247891004171-25-0.0" type="actor-car--4776865164531557794" depart="0.00" departLane="0" departPos="88.80" departSpeed="max" arrivalLane="0" arrivalPos="24.10">
        <route edges="gneE97 gneE98 -gneE82 -gneE81 edge-east-EN gneE95 gneE94 gneE91 gneE92 edge-west-WS"/>
    </vehicle>
    <vehicle id="-flow-random-route-f6424f0e-609c-4b70-a866-cdd3ceca0e15-547798247891004171-17-0.0" type="actor-car--4776865164531557794" depart="0.00" departLane="0" departPos="45.14" departSpeed="max" arrivalLane="0" arrivalPos="41.88">
        <route edges="gneE82 gneE93"/>
    </vehicle>
    <vehicle id="-flow-random-route-fcc40e54-92c2-4fd3-9728-ad4e4edf9175-547798247891004171-24-0.0" type="actor-car--4776865164531557794" depart="0.00" departLane="0" departPos="22.06" departSpeed="max" arrivalLane="0" arrivalPos="23.91">
        <route edges="-gneE82 -gneE81 edge-east-EN gneE95 gneE94 gneE91 gneE92 edge-west-WS edge-south-SE gneE81"/>
    </vehicle>
    <vehicle id="-flow-random-route-043e9b37-ff2d-4221-b3cd-8d837e74ab71-547798247891004171-3-0.1" type="actor-car--4776865164531557794" depart="120.00" departLane="0" departPos="42.41" departSpeed="max" arrivalLane="0" arrivalPos="14.36">
        <route edges="-gneE94 -gneE93 -gneE82 -gneE81 edge-east-EN edge-north-NW -gneE92 -gneE91 -gneE94 -gneE95"/>
    </vehicle>
    <vehicle id="-flow-random-route-124f29b5-1bd6-4ee2-b125-e61aa00da55a-547798247891004171-15-0.1" type="actor-car--4776865164531557794" depart="120.00" departLane="0" departPos="29.83" departSpeed="max" arrivalLane="0" arrivalPos="117.42">
        <route edges="edge-south-SE gneE81 gneE82 gneE93 gneE94 gneE91 gneE92 edge-west-WS gneE96 gneE97"/>
    </vehicle>
    <vehicle id="-flow-random-route-1404fc37-e58a-4b86-ba92-578105bf2b5e-547798247891004171-23-0.1" type="actor-car--4776865164531557794" depart="120.00" departLane="0" departPos="48.36" departSpeed="max" arrivalLane="0" arrivalPos="60.41">
        <route edges="gneE91 gneE92 edge-west-WS gneE96 gneE97 gneE98 -gneE82 -gneE81 edge-east-EN gneE95"/>
    </vehicle>
    <vehicle id="-flow-random-route-1cb4fc4a-6172-4979-9a8a-215d23fa6a16-547798247891004171-1-0.1" type="actor-car--4776865164531557794" depart="120.00" departLane="0" departPos="50.01" departSpeed="max" arrivalLane="0" arrivalPos="27.74">
        <route edges="-gneE92 -gneE91 -gneE94 -gneE95 edge-north-NW -gneE92 -gneE91 -gneE94 -gneE93 -gneE82"/>
    </vehicle>
    <vehicle id="-flow-random-route-2059ebdf-294a-4d64-ba40-b8f5c3472990-547798247891004171-20-0.1" type="actor-car--4776865164531557794" depart="120.00" departLane="0" departPos="67.74" departSpeed="max" arrivalLane="0" arrivalPos="1.57">
        <route edges="gneE82 gneE93 -gneE95 edge-north-NW edge-west-WS gneE96 gneE97 gneE98 -gneE82 -gneE81"/>
    </vehicle>
    <vehicle id="-flow-random-route-22b86345-e505-496f-8e1c-f404bafcd66e-547798247891004171-2-0.1" type="actor-car--4776865164531557794" depart="120.00" departLane="0" departPos="55.30" departSpeed="max" arrivalLane="0" arrivalPos="40.57">
        <route edges="edge-east-EN gneE95 -gneE93 -gneE82 -gneE81 edge-east-EN gneE95 gneE94 gneE91 gneE92"/>
    </vehicle>
    <vehicle id="-flow-random-route-2d2f2fbd-8d33-42f7-b5b0-902eb271fd5d-547798247891004171-28-0.1" type="actor-car--4776865164531557794" depart="120.00" departLane="0" departPos="25.55" departSpeed="max" arrivalLane="0" arrivalPos="81.07">
        <route edges="-gneE94 -gneE95 edge-north-NW edge-west-WS gneE96 gneE97 gneE98 gneE93 gneE94 gneE91"/>
    </vehicle>
    <vehicle id="-flow-random-route-4920a7c6-da2f-4ab2-9be3-0b4578d53577-547798247891004171-8-0.1" type="actor-car--4776865164531557794" depart="120.00" departLane="0" departPos="22.28" departSpeed="max" arrivalLane="0" arrivalPos="64.11">
        <route edges="gneE82 gneE93 gneE94 gneE91 gneE92 edge-west-WS"/>
    </vehicle>
    <vehicle id="-flow-random-route-4a5fbf97-76c5-4f30-9602-d3b7e17f69d5-547798247891004171-6-0.1" type="actor-car--4776865164531557794" depart="120.00" departLane="0" departPos="82.74" departSpeed="max" arrivalLane="0" arrivalPos="11.84">
        <route edges="gneE98 -gneE82"/>
    </vehicle>
    <vehicle id="-flow-random-route-562dd127-da24-4f12-9bd8-a3d72358412c-547798247891004171-11-0.1" type="actor-car--4776865164531557794" depart="120.00" departLane="1" departPos="12.47" departSpeed="max" arrivalLane="0" arrivalPos="47.16">
        <route edges="edge-east-EN edge-north-NW -gneE92 -gneE91 -gneE94 -gneE93 -gneE82 -gneE81 edge-east-EN gneE95"/>
    </vehicle>
    <vehicle id="-flow-random-route-5a9d3125-6466-436d-9659-600610839cf2-547798247891004171-18-0.1" type="actor-car--4776865164531557794" depart="120.00" departLane="0" departPos="30.87" departSpeed="max" arrivalLane="0" arrivalPos="48.51">
        <route edges="edge-north-NW -gneE92 -gneE91 -gneE94 -gneE95 edge-north-NW edge-west-WS gneE96 gneE97 gneE98"/>
    </vehicle>
    <vehicle id="-flow-random-route-622f67c2-732a-4dab-abdd-fd3d1abd7c53-547798247891004171-4-0.1" type="actor-car--4776865164531557794" depart="120.00" departLane="1" departPos="15.43" departSpeed="max" arrivalLane="0" arrivalPos="47.80">
        <route edges="edge-east-EN gneE95 gneE94 gneE91 gneE92 edge-west-WS edge-south-SE edge-east-EN edge-north-NW -gneE92"/>
    </vehicle>
    <vehicle id="-flow-random-route-67bb2ab1-5d2c-41ac-93fa-93f460f0ffb5-547798247891004171-10-0.1" type="actor-car--4776865164531557794" depart="120.00" departLane="0" departPos="71.04" departSpeed="max" arrivalLane="0" arrivalPos="42.44">
        <route edges="gneE98 gneE93 gneE94"/>
    </vehicle>
    <vehicle id="-flow-random-route-6ac99181-741a-4bbc-8810-0e8df7f8f79a-547798247891004171-12-0.1" type="actor-car--4776865164531557794" depart="120.00" departLane="0" departPos="107.50" departSpeed="max" arrivalLane="0" arrivalPos="68.96">
        <route edges="gneE96 gneE97"/>
    </vehicle>
    <vehicle id="-flow-random-route-6ca5575f-cc67-42e6-ac9d-ffe7e405ede6-547798247891004171-9-0.1" type="actor-car--4776865164531557794" depart="120.00" departLane="0" departPos="36.38" departSpeed="max" arrivalLane="0" arrivalPos="87.01">
        <route edges="-gneE91 -gneE94"/>
    </vehicle>
    <vehicle id="-flow-random-route-6de8efd9-f16f-489c-ab93-b7bb6567ec18-547798247891004171-27-0.1" type="actor-car--4776865164531557794" depart="120.00" departLane="0" departPos="95.35" departSpeed="max" arrivalLane="0" arrivalPos="93.70">
        <route edges="-gneE91 -gneE94"/>
    </vehicle>
    <vehicle id="-flow-random-route-6f2020da-aabc-436a-ae1a-47e20a598a1d-547798247891004171-16-0.1" type="actor-car--4776865164531557794" depart="120.00" departLane="0" departPos="6.90" departSpeed="max" arrivalLane="0" arrivalPos="16.24">
        <route edges="gneE81 gneE82 gneE93 -gneE95 edge-north-NW -gneE92 -gneE91 -gneE94 -gneE93 -gneE82"/>
    </vehicle>
    <vehicle id="-flow-random-route-6f7b93b8-9d99-4913-9d6a-cc7346744bdd-547798247891004171-19-0.1" type="actor-car--4776865164531557794" depart="120.00" departLane="0" departPos="40.48" departSpeed="max" arrivalLane="0" arrivalPos="12.69">
        <route edges="gneE91 gneE92 edge-west-WS gneE96 gneE97 gneE98 gneE93 -gneE95 edge-north-NW -gneE92"/>
    </vehicle>
    <vehicle id="-flow-random-route-837b8c94-5f64-486f-8b53-235cac5969a6-547798247891004171-13-0.1" type="actor-car--4776865164531557794" depart="120.00" departLane="0" departPos="12.00" departSpeed="max" arrivalLane="0" arrivalPos="2.18">
        <route edges="-gneE95 edge-north-NW edge-west-WS edge-south-SE gneE81 gneE82 gneE93 -gneE95 edge-north-NW -gneE92"/>
    </vehicle>
    <vehicle id="-flow-random-route-841b5c6b-4f09-4692-9346-f77b89826c6c-547798247891004171-29-0.1" type="actor-car--4776865164531557794" depart="120.00" departLane="0" departPos="53.67" departSpeed="max" arrivalLane="1" arrivalPos="40.32">
        <route edges="-gneE91 -gneE94 -gneE93 -gneE82 -gneE81 edge-east-EN"/>
    </vehicle>
    <vehicle id="-flow-random-route-85bd5e22-3615-48b7-846e-ec663809d5be-547798247891004171-5-0.1" type="actor-car--4776865164531557794" depart="120.00" departLane="0" departPos="27.93" departSpeed="max" arrivalLane="0" arrivalPos="5.24">
        <route edges="-gneE91 -gneE94"/>
    </vehicle>
    <vehicle id="-flow-random-route-97b1a024-7ca8-407e-a903-c2c34e339a70-547798247891004171-21-0.1" type="actor-car--4776865164531557794" depart="120.00" departLane="1" departPos="9.87" departSpeed="max" arrivalLane="0" arrivalPos="70.42">
        <route edges="edge-north-NW edge-west-WS edge-south-SE gneE81 gneE82 gneE93 -gneE95 edge-north-NW -gneE92 -gneE91"/>
    </vehicle>
    <vehicle id="-flow-random-route-a62fcfb1-f1d8-4ae3-80fa-a8c168dbaf86-547798247891004171-7-0.1" type="actor-car--4776865164531557794" depart="120.00" departLane="0" departPos="0.84" departSpeed="max" arrivalLane="0" arrivalPos="13.03">
        <route edges="gneE82 gneE93 -gneE95 edge-north-NW -gneE92"/>
    </vehicle>
    <vehicle id="-flow-random-route-a977c39a-724a-4c01-87e9-94910eee3afb-547798247891004171-0-0.1" type="actor-car--4776865164531557794" depart="120.00" departLane="1" departPos="20.84" departSpeed="max" arrivalLane="1" arrivalPos="39.52">
        <route edges="gneE96 gneE97 gneE98"/>
    </vehicle>
    <vehicle id="-flow-random-route-baada7ee-5a3a-4c67-9b5f-461ca978b0cf-547798247891004171-14-0.1" type="actor-car--4776865164531557794" depart="120.00" departLane="0" departPos="70.51" departSpeed="max" arrivalLane="0" arrivalPos="62.82">
        <route edges="-gneE94 -gneE93"/>
    </vehicle>
    <vehicle id="-flow-random-route-c69e7843-9373-4b71-a57e-34c254077c5f-547798247891004171-26-0.1" type="actor-car--4776865164531557794" depart="120.00" departLane="0" departPos="65.31" departSpeed="max" arrivalLane="0" arrivalPos="33.60">
        <route edges="gneE95 -gneE93 -gneE82 -gneE81 edge-east-EN gneE95 gneE94 gneE91 gneE92 edge-west-WS"/>
    </vehicle>
    <vehicle id="-flow-random-route-da819d84-1607-420d-b33e-a57f91a7dae6-547798247891004171-22-0.1" type="actor-car--4776865164531557794" depart="120.00" departLane="0" departPos="49.50" departSpeed="max" arrivalLane="0" arrivalPos="81.65">
        <route edges="-gneE95 edge-north-NW -gneE92 -gneE91 -gneE94"/>
    </vehicle>
    <vehicle id="-flow-random-route-e27311a3-2fd2-4899-bb48-14f3ab820388-547798247891004171-25-0.1" type="actor-car--4776865164531557794" depart="120.00" departLane="0" departPos="88.80" departSpeed="max" arrivalLane="0" arrivalPos="24.10">
        <route edges="gneE97 gneE98 -gneE82 -gneE81 edge-east-EN gneE95 gneE94 gneE91 gneE92 edge-west-WS"/>
    </vehicle>
    <vehicle id="-flow-random-route-f6424f0e-609c-4b70-a866-cdd3ceca0e15-547798247891004171-17-0.1" type="actor-car--4776865164531557794" depart="120.00" departLane="0" departPos="45.14" departSpeed="max" arrivalLane="0" arrivalPos="41.88">
        <route edges="gneE82 gneE93"/>
    </vehicle>
    <vehicle id="-flow-random-route-fcc40e54-92c2-4fd3-9728-ad4e4edf9175-547798247891004171-24-0.1" type="actor-car--4776865164531557794" depart="120.00" departLane="0" departPos="22.06" departSpeed="max" arrivalLane="0" arrivalPos="23.91">
        <route edges="-gneE82 -gneE81 edge-east-EN gneE95 gneE94 gneE91 gneE92 edge-west-WS edge-south-SE gneE81"/>
    </vehicle>
    <vehicle id="-flow-random-route-043e9b37-ff2d-4221-b3cd-8d837e74ab71-547798247891004171-3-0.2" type="actor-car--4776865164531557794" depart="240.00" departLane="0" departPos="42.41" departSpeed="max" arrivalLane="0" arrivalPos="14.36">
        <route edges="-gneE94 -gneE93 -gneE82 -gneE81 edge-east-EN edge-north-NW -gneE92 -gneE91 -gneE94 -gneE95"/>
    </vehicle>
    <vehicle id="-flow-random-route-124f29b5-1bd6-4ee2-b125-e61aa00da55a-547798247891004171-15-0.2" type="actor-car--4776865164531557794" depart="240.00" departLane="0" departPos="29.83" departSpeed="max" arrivalLane="0" arrivalPos="117.42">
        <route edges="edge-south-SE gneE81 gneE82 gneE93 gneE94 gneE91 gneE92 edge-west-WS gneE96 gneE97"/>
    </vehicle>
    <vehicle id="-flow-random-route-1404fc37-e58a-4b86-ba92-578105bf2b5e-547798247891004171-23-0.2" type="actor-car--4776865164531557794" depart="240.00" departLane="0" departPos="48.36" departSpeed="max" arrivalLane="0" arrivalPos="60.41">
        <route edges="gneE91 gneE92 edge-west-WS gneE96 gneE97 gneE98 -gneE82 -gneE81 edge-east-EN gneE95"/>
    </vehicle>
    <vehicle id="-flow-random-route-1cb4fc4a-6172-4979-9a8a-215d23fa6a16-547798247891004171-1-0.2" type="actor-car--4776865164531557794" depart="240.00" departLane="0" departPos="50.01" departSpeed="max" arrivalLane="0" arrivalPos="27.74">
        <route edges="-gneE92 -gneE91 -gneE94 -gneE95 edge-north-NW -gneE92 -gneE91 -gneE94 -gneE93 -gneE82"/>
    </vehicle>
    <vehicle id="-flow-random-route-2059ebdf-294a-4d64-ba40-b8f5c3472990-547798247891004171-20-0.2" type="actor-car--4776865164531557794" depart="240.00" departLane="0" departPos="67.74" departSpeed="max" arrivalLane="0" arrivalPos="1.57">
        <route edges="gneE82 gneE93 -gneE95 edge-north-NW edge-west-WS gneE96 gneE97 gneE98 -gneE82 -gneE81"/>
    </vehicle>
    <vehicle id="-flow-random-route-22b86345-e505-496f-8e1c-f404bafcd66e-547798247891004171-2-0.2" type="actor-car--4776865164531557794" depart="240.00" departLane="0" departPos="55.30" departSpeed="max" arrivalLane="0" arrivalPos="40.57">
        <route edges="edge-east-EN gneE95 -gneE93 -gneE82 -gneE81 edge-east-EN gneE95 gneE94 gneE91 gneE92"/>
    </vehicle>
    <vehicle id="-flow-random-route-2d2f2fbd-8d33-42f7-b5b0-902eb271fd5d-547798247891004171-28-0.2" type="actor-car--4776865164531557794" depart="240.00" departLane="0" departPos="25.55" departSpeed="max" arrivalLane="0" arrivalPos="81.07">
        <route edges="-gneE94 -gneE95 edge-north-NW edge-west-WS gneE96 gneE97 gneE98 gneE93 gneE94 gneE91"/>
    </vehicle>
    <vehicle id="-flow-random-route-4920a7c6-da2f-4ab2-9be3-0b4578d53577-547798247891004171-8-0.2" type="actor-car--4776865164531557794" depart="240.00" departLane="0" departPos="22.28" departSpeed="max" arrivalLane="0" arrivalPos="64.11">
        <route edges="gneE82 gneE93 gneE94 gneE91 gneE92 edge-west-WS"/>
    </vehicle>
    <vehicle id="-flow-random-route-4a5fbf97-76c5-4f30-9602-d3b7e17f69d5-547798247891004171-6-0.2" type="actor-car--4776865164531557794" depart="240.00" departLane="0" departPos="82.74" departSpeed="max" arrivalLane="0" arrivalPos="11.84">
        <route edges="gneE98 -gneE82"/>
    </vehicle>
    <vehicle id="-flow-random-route-562dd127-da24-4f12-9bd8-a3d72358412c-547798247891004171-11-0.2" type="actor-car--4776865164531557794" depart="240.00" departLane="1" departPos="12.47" departSpeed="max" arrivalLane="0" arrivalPos="47.16">
        <route edges="edge-east-EN edge-north-NW -gneE92 -gneE91 -gneE94 -gneE93 -gneE82 -gneE81 edge-east-EN gneE95"/>
    </vehicle>
    <vehicle id="-flow-random-route-5a9d3125-6466-436d-9659-600610839cf2-547798247891004171-18-0.2" type="actor-car--4776865164531557794" depart="240.00" departLane="0" departPos="30.87" departSpeed="max" arrivalLane="0" arrivalPos="48.51">
        <route edges="edge-north-NW -gneE92 -gneE91 -gneE94 -gneE95 edge-north-NW edge-west-WS gneE96 gneE97 gneE98"/>
    </vehicle>
    <vehicle id="-flow-random-route-622f67c2-732a-4dab-abdd-fd3d1abd7c53-547798247891004171-4-0.2" type="actor-car--4776865164531557794" depart="240.00" departLane="1" departPos="15.43" departSpeed="max" arrivalLane="0" arrivalPos="47.80">
        <route edges="edge-east-EN gneE95 gneE94 gneE91 gneE92 edge-west-WS edge-south-SE edge-east-EN edge-north-NW -gneE92"/>
    </vehicle>
    <vehicle id="-flow-random-route-67bb2ab1-5d2c-41ac-93fa-93f460f0ffb5-547798247891004171-10-0.2" type="actor-car--4776865164531557794" depart="240.00" departLane="0" departPos="71.04" departSpeed="max" arrivalLane="0" arrivalPos="42.44">
        <route edges="gneE98 gneE93 gneE94"/>
    </vehicle>
    <vehicle id="-flow-random-route-6ac99181-741a-4bbc-8810-0e8df7f8f79a-547798247891004171-12-0.2" type="actor-car--4776865164531557794" depart="240.00" departLane="0" departPos="107.50" departSpeed="max" arrivalLane="0" arrivalPos="68.96">
        <route edges="gneE96 gneE97"/>
    </vehicle>
    <vehicle id="-flow-random-route-6ca5575f-cc67-42e6-ac9d-ffe7e405ede6-547798247891004171-9-0.2" type="actor-car--4776865164531557794" depart="240.00" departLane="0" departPos="36.38" departSpeed="max" arrivalLane="0" arrivalPos="87.01">
        <route edges="-gneE91 -gneE94"/>
    </vehicle>
    <vehicle id="-flow-random-route-6de8efd9-f16f-489c-ab93-b7bb6567ec18-547798247891004171-27-0.2" type="actor-car--4776865164531557794" depart="240.00" departLane="0" departPos="95.35" departSpeed="max" arrivalLane="0" arrivalPos="93.70">
        <route edges="-gneE91 -gneE94"/>
    </vehicle>
    <vehicle id="-flow-random-route-6f2020da-aabc-436a-ae1a-47e20a598a1d-547798247891004171-16-0.2" type="actor-car--4776865164531557794" depart="240.00" departLane="0" departPos="6.90" departSpeed="max" arrivalLane="0" arrivalPos="16.24">
        <route edges="gneE81 gneE82 gneE93 -gneE95 edge-north-NW -gneE92 -gneE91 -gneE94 -gneE93 -gneE82"/>
    </vehicle>
    <vehicle id="-flow-random-route-6f7b93b8-9d99-4913-9d6a-cc7346744bdd-547798247891004171-19-0.2" type="actor-car--4776865164531557794" depart="240.00" departLane="0" departPos="40.48" departSpeed="max" arrivalLane="0" arrivalPos="12.69">
        <route edges="gneE91 gneE92 edge-west-WS gneE96 gneE97 gneE98 gneE93 -gneE95 edge-north-NW -gneE92"/>
    </vehicle>
    <vehicle id="-flow-random-route-837b8c94-5f64-486f-8b53-235cac5969a6-547798247891004171-13-0.2" type="actor-car--4776865164531557794" depart="240.00" departLane="0" departPos="12.00" departSpeed="max" arrivalLane="0" arrivalPos="2.18">
        <route edges="-gneE95 edge-north-NW edge-west-WS edge-south-SE gneE81 gneE82 gneE93 -gneE95 edge-north-NW -gneE92"/>
    </vehicle>
    <vehicle id="-flow-random-route-841b5c6b-4f09-4692-9346-f77b89826c6c-547798247891004171-29-0.2" type="actor-car--4776865164531557794" depart="240.00" departLane="0" departPos="53.67" departSpeed="max" arrivalLane="1" arrivalPos="40.32">
        <route edges="-gneE91 -gneE94 -gneE93 -gneE82 -gneE81 edge-east-EN"/>
    </vehicle>
    <vehicle id="-flow-random-route-85bd5e22-3615-48b7-846e-ec663809d5be-547798247891004171-5-0.2" type="actor-car--4776865164531557794" depart="240.00" departLane="0" departPos="27.93" departSpeed="max" arrivalLane="0" arrivalPos="5.24">
        <route edges="-gneE91 -gneE94"/>
    </vehicle>
    <vehicle id="-flow-random-route-97b1a024-7ca8-407e-a903-c2c34e339a70-547798247891004171-21-0.2" type="actor-car--4776865164531557794" depart="240.00" departLane="1" departPos="9.87" departSpeed="max" arrivalLane="0" arrivalPos="70.42">
        <route edges="edge-north-NW edge-west-WS edge-south-SE gneE81 gneE82 gneE93 -gneE95 edge-north-NW -gneE92 -gneE91"/>
    </vehicle>