<?xml version="1.0" encoding="UTF-8"?>

<!-- generated on Fri Aug 21 07:53:10 2020 by Eclipse SUMO duarouter Version 1.6.0
<configuration xmlns:xsi="http://www.w3.org/2001/XMLSchema-instance" xsi:noNamespaceSchemaLocation="http://sumo.dlr.de/xsd/duarouterConfiguration.xsd">

    <input>
        <net-file value="dataset_public/mixed_loop/roundabout_its_a/map.net.xml"/>
        <route-files value="/tmp/tmpoez7e9vs/trips.trips.xml"/>
    </input>

    <output>
        <output-file value="dataset_public/mixed_loop/roundabout_its_a/traffic/30_patient_car.rou.xml"/>
        <alternatives-output value="dataset_public/mixed_loop/roundabout_its_a/traffic/30_patient_car.rou.alt.xml"/>
    </output>

    <processing>
        <unsorted-input value="true"/>
        <repair value="true"/>
    </processing>

    <report>
        <error-log value="/tmp/smarts/_duarouter_routing/traffic/30_patient_car.log"/>
        <no-step-log value="true"/>
    </report>

    <random_number>
        <seed value="42"/>
    </random_number>

</configuration>
-->

<routes xmlns:xsi="http://www.w3.org/2001/XMLSchema-instance" xsi:noNamespaceSchemaLocation="http://sumo.dlr.de/xsd/routes_file.xsd">
    <vType id="actor-car--8176751977842715726" minGap="2.50" speedFactor="normc(0.50,0.20,0.20,2.00)" vClass="passenger" impatience="0.50" lcCooperative="0.5" lcImpatience="0" jmDriveAfterYellowTime="1.0" accel="2.6" decel="4.5" sigma="0.5"/>
    <vehicle id="-flow-random-route-1338cb4d-0704-4a41-974c-2b247d325bb4-5742362965613439630-7-0.0" type="actor-car--8176751977842715726" depart="0.00" departLane="0" departPos="36.38" departSpeed="max" arrivalLane="0" arrivalPos="87.01">
        <route edges="-gneE91 -gneE94"/>
    </vehicle>
    <vehicle id="-flow-random-route-20f9ed40-bcc3-4ca4-8ea5-a1ffcaa2c18f-5742362965613439630-5-0.0" type="actor-car--8176751977842715726" depart="0.00" departLane="0" departPos="82.74" departSpeed="max" arrivalLane="0" arrivalPos="11.84">
        <route edges="gneE98 -gneE82"/>
    </vehicle>
    <vehicle id="-flow-random-route-27b2d0f8-a8d3-4af8-af75-6a133235cd03-5742362965613439630-3-0.0" type="actor-car--8176751977842715726" depart="0.00" departLane="0" departPos="12.00" departSpeed="max" arrivalLane="0" arrivalPos="2.18">
        <route edges="-gneE95 edge-north-NW edge-west-WS edge-south-SE gneE81 gneE82 gneE93 -gneE95 edge-north-NW -gneE92"/>
    </vehicle>
    <vehicle id="-flow-random-route-2d9a10d7-f487-42eb-84ff-823969854992-5742362965613439630-12-0.0" type="actor-car--8176751977842715726" depart="0.00" departLane="1" departPos="12.47" departSpeed="max" arrivalLane="0" arrivalPos="47.16">
        <route edges="edge-east-EN edge-north-NW -gneE92 -gneE91 -gneE94 -gneE93 -gneE82 -gneE81 edge-east-EN gneE95"/>
    </vehicle>
    <vehicle id="-flow-random-route-47635f12-2327-4e26-b71f-1744dbff5cbd-5742362965613439630-11-0.0" type="actor-car--8176751977842715726" depart="0.00" departLane="0" departPos="95.35" departSpeed="max" arrivalLane="0" arrivalPos="93.70">
        <route edges="-gneE91 -gneE94"/>
    </vehicle>
    <vehicle id="-flow-random-route-4c6514d4-889d-47ff-9dea-44be782f0719-5742362965613439630-8-0.0" type="actor-car--8176751977842715726" depart="0.00" departLane="0" departPos="6.90" departSpeed="max" arrivalLane="0" arrivalPos="16.24">
        <route edges="gneE81 gneE82 gneE93 -gneE95 edge-north-NW -gneE92 -gneE91 -gneE94 -gneE93 -gneE82"/>
    </vehicle>
    <vehicle id="-flow-random-route-4ec532a5-77a0-4088-868b-60dc2367f4d2-5742362965613439630-26-0.0" type="actor-car--8176751977842715726" depart="0.00" departLane="0" departPos="53.67" departSpeed="max" arrivalLane="1" arrivalPos="40.32">
        <route edges="-gneE91 -gneE94 -gneE93 -gneE82 -gneE81 edge-east-EN"/>
    </vehicle>
    <vehicle id="-flow-random-route-5201d833-9266-4d7c-a5b4-3413cc671049-5742362965613439630-15-0.0" type="actor-car--8176751977842715726" depart="0.00" departLane="0" departPos="107.50" departSpeed="max" arrivalLane="0" arrivalPos="68.96">
        <route edges="gneE96 gneE97"/>
    </vehicle>
    <vehicle id="-flow-random-route-55237da4-a96e-4e81-8f9e-54575e8ecd35-5742362965613439630-24-0.0" type="actor-car--8176751977842715726" depart="0.00" departLane="0" departPos="55.30" departSpeed="max" arrivalLane="0" arrivalPos="40.57">
        <route edges="edge-east-EN gneE95 -gneE93 -gneE82 -gneE81 edge-east-EN gneE95 gneE94 gneE91 gneE92"/>
    </vehicle>
    <vehicle id="-flow-random-route-581151d1-046b-4ec1-9f1a-030b01ffd938-5742362965613439630-9-0.0" type="actor-car--8176751977842715726" depart="0.00" departLane="0" departPos="22.28" departSpeed="max" arrivalLane="0" arrivalPos="64.11">
        <route edges="gneE82 gneE93 gneE94 gneE91 gneE92 edge-west-WS"/>
    </vehicle>
    <vehicle id="-flow-random-route-631d3092-fccb-4555-beb9-1a7dab96f684-5742362965613439630-27-0.0" type="actor-car--8176751977842715726" depart="0.00" departLane="0" departPos="49.50" departSpeed="max" arrivalLane="0" arrivalPos="81.65">
        <route edges="-gneE95 edge-north-NW -gneE92 -gneE91 -gneE94"/>
    </vehicle>
    <vehicle id="-flow-random-route-6c2ea38e-f0a3-4f67-95bb-b8f632a417b2-5742362965613439630-19-0.0" type="actor-car--8176751977842715726" depart="0.00" departLane="0" departPos="71.04" departSpeed="max" arrivalLane="0" arrivalPos="42.44">
        <route edges="gneE98 gneE93 gneE94"/>
    </vehicle>
    <vehicle id="-flow-random-route-7e24ecd1-9987-4b30-9a8e-eda23086d2f5-5742362965613439630-1-0.0" type="actor-car--8176751977842715726" depart="0.00" departLane="0" departPos="67.74" departSpeed="max" arrivalLane="0" arrivalPos="1.57">
        <route edges="gneE82 gneE93 -gneE95 edge-north-NW edge-west-WS gneE96 gneE97 gneE98 -gneE82 -gneE81"/>
    </vehicle>
    <vehicle id="-flow-random-route-8060d589-639a-4a64-8b44-cf8d2f5c0357-5742362965613439630-29-0.0" type="actor-car--8176751977842715726" depart="0.00" departLane="0" departPos="40.48" departSpeed="max" arrivalLane="0" arrivalPos="12.69">
        <route edges="gneE91 gneE92 edge-west-WS gneE96 gneE97 gneE98 gneE93 -gneE95 edge-north-NW -gneE92"/>
    </vehicle>
    <vehicle id="-flow-random-route-8a5f780f-8c66-486e-b791-1f3437f63ef3-5742362965613439630-22-0.0" type="actor-car--8176751977842715726" depart="0.00" departLane="0" departPos="30.87" departSpeed="max" arrivalLane="0" arrivalPos="48.51">
        <route edges="edge-north-NW -gneE92 -gneE91 -gneE94 -gneE95 edge-north-NW edge-west-WS gneE96 gneE97 gneE98"/>
    </vehicle>
    <vehicle id="-flow-random-route-a093f0c2-b24a-438e-a404-7bdf7c7fbff7-5742362965613439630-2-0.0" type="actor-car--8176751977842715726" depart="0.00" departLane="0" departPos="22.06" departSpeed="max" arrivalLane="0" arrivalPos="23.91">
        <route edges="-gneE82 -gneE81 edge-east-EN gneE95 gneE94 gneE91 gneE92 edge-west-WS edge-south-SE gneE81"/>
    </vehicle>
    <vehicle id="-flow-random-route-a3698224-4a74-494c-a0df-523f005a983a-5742362965613439630-4-0.0" type="actor-car--8176751977842715726" depart="0.00" departLane="0" departPos="29.83" departSpeed="max" arrivalLane="0" arrivalPos="117.42">
        <route edges="edge-south-SE gneE81 gneE82 gneE93 gneE94 gneE91 gneE92 edge-west-WS gneE96 gneE97"/>
    </vehicle>
    <vehicle id="-flow-random-route-a884e616-3526-489f-a401-2ee25292b198-5742362965613439630-18-0.0" type="actor-car--8176751977842715726" depart="0.00" departLane="0" departPos="65.31" departSpeed="max" arrivalLane="0" arrivalPos="33.60">
        <route edges="gneE95 -gneE93 -gneE82 -gneE81 edge-east-EN gneE95 gneE94 gneE91 gneE92 edge-west-WS"/>
    </vehicle>
    <vehicle id="-flow-random-route-ac7a39a9-e161-40b3-89b5-22a24e3fbff4-5742362965613439630-28-0.0" type="actor-car--8176751977842715726" depart="0.00" departLane="0" departPos="45.14" departSpeed="max" arrivalLane="0" arrivalPos="41.88">
        <route edges="gneE82 gneE93"/>
    </vehicle>
    <vehicle id="-flow-random-route-b504e2ca-86c6-4e5f-96aa-0f6429b9301a-5742362965613439630-6-0.0" type="actor-car--8176751977842715726" depart="0.00" departLane="0" departPos="50.01" departSpeed="max" arrivalLane="0" arrivalPos="27.74">
        <route edges="-gneE92 -gneE91 -gneE94 -gneE95 edge-north-NW -gneE92 -gneE91 -gneE94 -gneE93 -gneE82"/>
    </vehicle>
    <vehicle id="-flow-random-route-b7134a90-b4d3-4636-948c-16d7df027633-5742362965613439630-10-0.0" type="actor-car--8176751977842715726" depart="0.00" departLane="0" departPos="70.51" departSpeed="max" arrivalLane="0" arrivalPos="62.82">
        <route edges="-gneE94 -gneE93"/>
    </vehicle>
    <vehicle id="-flow-random-route-c3979341-4403-4afc-8b6f-889f911f31aa-5742362965613439630-16-0.0" type="actor-car--8176751977842715726" depart="0.00" departLane="0" departPos="0.84" departSpeed="max" arrivalLane="0" arrivalPos="13.03">
        <route edges="gneE82 gneE93 -gneE95 edge-north-NW -gneE92"/>
    </vehicle>
    <vehicle id="-flow-random-route-c4d7997c-c481-46a2-943a-4cdd9e2d5b87-5742362965613439630-17-0.0" type="actor-car--8176751977842715726" depart="0.00" departLane="0" departPos="25.55" departSpeed="max" arrivalLane="0" arrivalPos="81.07">
        <route edges="-gneE94 -gneE95 edge-north-NW edge-west-WS gneE96 gneE97 gneE98 gneE93 gneE94 gneE91"/>
    </vehicle>
    <vehicle id="-flow-random-route-cdb72eaf-b9eb-408d-9352-5fcc15efeeed-5742362965613439630-14-0.0" type="actor-car--8176751977842715726" depart="0.00" departLane="0" departPos="48.36" departSpeed="max" arrivalLane="0" arrivalPos="60.41">
        <route edges="gneE91 gneE92 edge-west-WS gneE96 gneE97 gneE98 -gneE82 -gneE81 edge-east-EN gneE95"/>
    </vehicle>
    <vehicle id="-flow-random-route-d3f9ef28-6b6c-4680-8da9-3178b79eb5c1-5742362965613439630-0-0.0" type="actor-car--8176751977842715726" depart="0.00" departLane="0" departPos="27.93" departSpeed="max" arrivalLane="0" arrivalPos="5.24">
        <route edges="-gneE91 -gneE94"/>
    </vehicle>
    <vehicle id="-flow-random-route-de5db1aa-f2f5-4c93-9ed8-5c95cd2663c4-5742362965613439630-21-0.0" type="actor-car--8176751977842715726" depart="0.00" departLane="0" departPos="88.80" departSpeed="max" arrivalLane="0" arrivalPos="24.10">
        <route edges="gneE97 gneE98 -gneE82 -gneE81 edge-east-EN gneE95 gneE94 gneE91 gneE92 edge-west-WS"/>
    </vehicle>
    <vehicle id="-flow-random-route-dfda9b79-1713-44cd-b323-8d31c29ea8a9-5742362965613439630-13-0.0" type="actor-car--8176751977842715726" depart="0.00" departLane="1" departPos="20.84" departSpeed="max" arrivalLane="1" arrivalPos="39.52">
        <route edges="gneE96 gneE97 gneE98"/>
    </vehicle>
    <vehicle id="-flow-random-route-e23ef16e-e6c1-49fe-b8aa-7d07d031b65d-5742362965613439630-20-0.0" type="actor-car--8176751977842715726" depart="0.00" departLane="1" departPos="9.87" departSpeed="max" arrivalLane="0" arrivalPos="70.42">
        <route edges="edge-north-NW edge-west-WS edge-south-SE gneE81 gneE82 gneE93 -gneE95 edge-north-NW -gneE92 -gneE91"/>
    </vehicle>
    <vehicle id="-flow-random-route-e4af59b4-1e9b-45c2-84f7-14810bd45720-5742362965613439630-25-0.0" type="actor-car--8176751977842715726" depart="0.00" departLane="0" departPos="42.41" departSpeed="max" arrivalLane="0" arrivalPos="14.36">
        <route edges="-gneE94 -gneE93 -gneE82 -gneE81 edge-east-EN edge-north-NW -gneE92 -gneE91 -gneE94 -gneE95"/>
    </vehicle>
    <vehicle id="-flow-random-route-e51fee03-551e-4bf9-b457-6b2ff5398841-5742362965613439630-23-0.0" type="actor-car--8176751977842715726" depart="0.00" departLane="1" departPos="15.43" departSpeed="max" arrivalLane="0" arrivalPos="47.80">
        <route edges="edge-east-EN gneE95 gneE94 gneE91 gneE92 edge-west-WS edge-south-SE edge-east-EN edge-north-NW -gneE92"/>
    </vehicle>
    <vehicle id="-flow-random-route-1338cb4d-0704-4a41-974c-2b247d325bb4-5742362965613439630-7-0.1" type="actor-car--8176751977842715726" depart="120.00" departLane="0" departPos="36.38" departSpeed="max" arrivalLane="0" arrivalPos="87.01">
        <route edges="-gneE91 -gneE94"/>
    </vehicle>
    <vehicle id="-flow-random-route-20f9ed40-bcc3-4ca4-8ea5-a1ffcaa2c18f-5742362965613439630-5-0.1" type="actor-car--8176751977842715726" depart="120.00" departLane="0" departPos="82.74" departSpeed="max" arrivalLane="0" arrivalPos="11.84">
        <route edges="gneE98 -gneE82"/>
    </vehicle>
    <vehicle id="-flow-random-route-27b2d0f8-a8d3-4af8-af75-6a133235cd03-5742362965613439630-3-0.1" type="actor-car--8176751977842715726" depart="120.00" departLane="0" departPos="12.00" departSpeed="max" arrivalLane="0" arrivalPos="2.18">
        <route edges="-gneE95 edge-north-NW edge-west-WS edge-south-SE gneE81 gneE82 gneE93 -gneE95 edge-north-NW -gneE92"/>
    </vehicle>
    <vehicle id="-flow-random-route-2d9a10d7-f487-42eb-84ff-823969854992-5742362965613439630-12-0.1" type="actor-car--8176751977842715726" depart="120.00" departLane="1" departPos="12.47" departSpeed="max" arrivalLane="0" arrivalPos="47.16">
        <route edges="edge-east-EN edge-north-NW -gneE92 -gneE91 -gneE94 -gneE93 -gneE82 -gneE81 edge-east-EN gneE95"/>
    </vehicle>
    <vehicle id="-flow-random-route-47635f12-2327-4e26-b71f-1744dbff5cbd-5742362965613439630-11-0.1" type="actor-car--8176751977842715726" depart="120.00" departLane="0" departPos="95.35" departSpeed="max" arrivalLane="0" arrivalPos="93.70">
        <route edges="-gneE91 -gneE94"/>
    </vehicle>
    <vehicle id="-flow-random-route-4c6514d4-889d-47ff-9dea-44be782f0719-5742362965613439630-8-0.1" type="actor-car--8176751977842715726" depart="120.00" departLane="0" departPos="6.90" departSpeed="max" arrivalLane="0" arrivalPos="16.24">
        <route edges="gneE81 gneE82 gneE93 -gneE95 edge-north-NW -gneE92 -gneE91 -gneE94 -gneE93 -gneE82"/>
    </vehicle>
    <vehicle id="-flow-random-route-4ec532a5-77a0-4088-868b-60dc2367f4d2-5742362965613439630-26-0.1" type="actor-car--8176751977842715726" depart="120.00" departLane="0" departPos="53.67" departSpeed="max" arrivalLane="1" arrivalPos="40.32">
        <route edges="-gneE91 -gneE94 -gneE93 -gneE82 -gneE81 edge-east-EN"/>
    </vehicle>
    <vehicle id="-flow-random-route-5201d833-9266-4d7c-a5b4-3413cc671049-5742362965613439630-15-0.1" type="actor-car--8176751977842715726" depart="120.00" departLane="0" departPos="107.50" departSpeed="max" arrivalLane="0" arrivalPos="68.96">
        <route edges="gneE96 gneE97"/>
    </vehicle>
    <vehicle id="-flow-random-route-55237da4-a96e-4e81-8f9e-54575e8ecd35-5742362965613439630-24-0.1" type="actor-car--8176751977842715726" depart="120.00" departLane="0" departPos="55.30" departSpeed="max" arrivalLane="0" arrivalPos="40.57">
        <route edges="edge-east-EN gneE95 -gneE93 -gneE82 -gneE81 edge-east-EN gneE95 gneE94 gneE91 gneE92"/>
    </vehicle>
    <vehicle id="-flow-random-route-581151d1-046b-4ec1-9f1a-030b01ffd938-5742362965613439630-9-0.1" type="actor-car--8176751977842715726" depart="120.00" departLane="0" departPos="22.28" departSpeed="max" arrivalLane="0" arrivalPos="64.11">
        <route edges="gneE82 gneE93 gneE94 gneE91 gneE92 edge-west-WS"/>
    </vehicle>
    <vehicle id="-flow-random-route-631d3092-fccb-4555-beb9-1a7dab96f684-5742362965613439630-27-0.1" type="actor-car--8176751977842715726" depart="120.00" departLane="0" departPos="49.50" departSpeed="max" arrivalLane="0" arrivalPos="81.65">
        <route edges="-gneE95 edge-north-NW -gneE92 -gneE91 -gneE94"/>
    </vehicle>
    <vehicle id="-flow-random-route-6c2ea38e-f0a3-4f67-95bb-b8f632a417b2-5742362965613439630-19-0.1" type="actor-car--8176751977842715726" depart="120.00" departLane="0" departPos="71.04" departSpeed="max" arrivalLane="0" arrivalPos="42.44">
        <route edges="gneE98 gneE93 gneE94"/>
    </vehicle>
    <vehicle id="-flow-random-route-7e24ecd1-9987-4b30-9a8e-eda23086d2f5-5742362965613439630-1-0.1" type="actor-car--8176751977842715726" depart="120.00" departLane="0" departPos="67.74" departSpeed="max" arrivalLane="0" arrivalPos="1.57">
        <route edges="gneE82 gneE93 -gneE95 edge-north-NW edge-west-WS gneE96 gneE97 gneE98 -gneE82 -gneE81"/>
    </vehicle>
    <vehicle id="-flow-random-route-8060d589-639a-4a64-8b44-cf8d2f5c0357-5742362965613439630-29-0.1" type="actor-car--8176751977842715726" depart="120.00" departLane="0" departPos="40.48" departSpeed="max" arrivalLane="0" arrivalPos="12.69">
        <route edges="gneE91 gneE92 edge-west-WS gneE96 gneE97 gneE98 gneE93 -gneE95 edge-north-NW -gneE92"/>
    </vehicle>
    <vehicle id="-flow-random-route-8a5f780f-8c66-486e-b791-1f3437f63ef3-5742362965613439630-22-0.1" type="actor-car--8176751977842715726" depart="120.00" departLane="0" departPos="30.87" departSpeed="max" arrivalLane="0" arrivalPos="48.51">
        <route edges="edge-north-NW -gneE92 -gneE91 -gneE94 -gneE95 edge-north-NW edge-west-WS gneE96 gneE97 gneE98"/>
    </vehicle>
    <vehicle id="-flow-random-route-a093f0c2-b24a-438e-a404-7bdf7c7fbff7-5742362965613439630-2-0.1" type="actor-car--8176751977842715726" depart="120.00" departLane="0" departPos="22.06" departSpeed="max" arrivalLane="0" arrivalPos="23.91">
        <route edges="-gneE82 -gneE81 edge-east-EN gneE95 gneE94 gneE91 gneE92 edge-west-WS edge-south-SE gneE81"/>
    </vehicle>
    <vehicle id="-flow-random-route-a3698224-4a74-494c-a0df-523f005a983a-5742362965613439630-4-0.1" type="actor-car--8176751977842715726" depart="120.00" departLane="0" departPos="29.83" departSpeed="max" arrivalLane="0" arrivalPos="117.42">
        <route edges="edge-south-SE gneE81 gneE82 gneE93 gneE94 gneE91 gneE92 edge-west-WS gneE96 gneE97"/>
    </vehicle>
    <vehicle id="-flow-random-route-a884e616-3526-489f-a401-2ee25292b198-5742362965613439630-18-0.1" type="actor-car--8176751977842715726" depart="120.00" departLane="0" departPos="65.31" departSpeed="max" arrivalLane="0" arrivalPos="33.60">
        <route edges="gneE95 -gneE93 -gneE82 -gneE81 edge-east-EN gneE95 gneE94 gneE91 gneE92 edge-west-WS"/>
    </vehicle>
    <vehicle id="-flow-random-route-ac7a39a9-e161-40b3-89b5-22a24e3fbff4-5742362965613439630-28-0.1" type="actor-car--8176751977842715726" depart="120.00" departLane="0" departPos="45.14" departSpeed="max" arrivalLane="0" arrivalPos="41.88">
        <route edges="gneE82 gneE93"/>
    </vehicle>
    <vehicle id="-flow-random-route-b504e2ca-86c6-4e5f-96aa-0f6429b9301a-5742362965613439630-6-0.1" type="actor-car--8176751977842715726" depart="120.00" departLane="0" departPos="50.01" departSpeed="max" arrivalLane="0" arrivalPos="27.74">
        <route edges="-gneE92 -gneE91 -gneE94 -gneE95 edge-north-NW -gneE92 -gneE91 -gneE94 -gneE93 -gneE82"/>
    </vehicle>
    <vehicle id="-flow-random-route-b7134a90-b4d3-4636-948c-16d7df027633-5742362965613439630-10-0.1" type="actor-car--8176751977842715726" depart="120.00" departLane="0" departPos="70.51" departSpeed="max" arrivalLane="0" arrivalPos="62.82">
        <route edges="-gneE94 -gneE93"/>
    </vehicle>
    <vehicle id="-flow-random-route-c3979341-4403-4afc-8b6f-889f911f31aa-5742362965613439630-16-0.1" type="actor-car--8176751977842715726" depart="120.00" departLane="0" departPos="0.84" departSpeed="max" arrivalLane="0" arrivalPos="13.03">
        <route edges="gneE82 gneE93 -gneE95 edge-north-NW -gneE92"/>
    </vehicle>
    <vehicle id="-flow-random-route-c4d7997c-c481-46a2-943a-4cdd9e2d5b87-5742362965613439630-17-0.1" type="actor-car--8176751977842715726" depart="120.00" departLane="0" departPos="25.55" departSpeed="max" arrivalLane="0" arrivalPos="81.07">
        <route edges="-gneE94 -gneE95 edge-north-NW edge-west-WS gneE96 gneE97 gneE98 gneE93 gneE94 gneE91"/>
    </vehicle>
    <vehicle id="-flow-random-route-cdb72eaf-b9eb-408d-9352-5fcc15efeeed-5742362965613439630-14-0.1" type="actor-car--8176751977842715726" depart="120.00" departLane="0" departPos="48.36" departSpeed="max" arrivalLane="0" arrivalPos="60.41">
        <route edges="gneE91 gneE92 edge-west-WS gneE96 gneE97 gneE98 -gneE82 -gneE81 edge-east-EN gneE95"/>
    </vehicle>
    <vehicle id="-flow-random-route-d3f9ef28-6b6c-4680-8da9-3178b79eb5c1-5742362965613439630-0-0.1" type="actor-car--8176751977842715726" depart="120.00" departLane="0" departPos="27.93" departSpeed="max" arrivalLane="0" arrivalPos="5.24">
        <route edges="-gneE91 -gneE94"/>
    </vehicle>
    <vehicle id="-flow-random-route-de5db1aa-f2f5-4c93-9ed8-5c95cd2663c4-5742362965613439630-21-0.1" type="actor-car--8176751977842715726" depart="120.00" departLane="0" departPos="88.80" departSpeed="max" arrivalLane="0" arrivalPos="24.10">
        <route edges="gneE97 gneE98 -gneE82 -gneE81 edge-east-EN gneE95 gneE94 gneE91 gneE92 edge-west-WS"/>
    </vehicle>
    <vehicle id="-flow-random-route-dfda9b79-1713-44cd-b323-8d31c29ea8a9-5742362965613439630-13-0.1" type="actor-car--8176751977842715726" depart="120.00" departLane="1" departPos="20.84" departSpeed="max" arrivalLane="1" arrivalPos="39.52">
        <route edges="gneE96 gneE97 gneE98"/>
    </vehicle>
    <vehicle id="-flow-random-route-e23ef16e-e6c1-49fe-b8aa-7d07d031b65d-5742362965613439630-20-0.1" type="actor-car--8176751977842715726" depart="120.00" departLane="1" departPos="9.87" departSpeed="max" arrivalLane="0" arrivalPos="70.42">
        <route edges="edge-north-NW edge-west-WS edge-south-SE gneE81 gneE82 gneE93 -gneE95 edge-north-NW -gneE92 -gneE91"/>
    </vehicle>
    <vehicle id="-flow-random-route-e4af59b4-1e9b-45c2-84f7-14810bd45720-5742362965613439630-25-0.1" type="actor-car--8176751977842715726" depart="120.00" departLane="0" departPos="42.41" departSpeed="max" arrivalLane="0" arrivalPos="14.36">
        <route edges="-gneE94 -gneE93 -gneE82 -gneE81 edge-east-EN edge-north-NW -gneE92 -gneE91 -gneE94 -gneE95"/>
    </vehicle>
    <vehicle id="-flow-random-route-e51fee03-551e-4bf9-b457-6b2ff5398841-5742362965613439630-23-0.1" type="actor-car--8176751977842715726" depart="120.00" departLane="1" departPos="15.43" departSpeed="max" arrivalLane="0" arrivalPos="47.80">
        <route edges="edge-east-EN gneE95 gneE94 gneE91 gneE92 edge-west-WS edge-south-SE edge-east-EN edge-north-NW -gneE92"/>
    </vehicle>
    <vehicle id="-flow-random-route-1338cb4d-0704-4a41-974c-2b247d325bb4-5742362965613439630-7-0.2" type="actor-car--8176751977842715726" depart="240.00" departLane="0" departPos="36.38" departSpeed="max" arrivalLane="0" arrivalPos="87.01">
        <route edges="-gneE91 -gneE94"/>
    </vehicle>
    <vehicle id="-flow-random-route-20f9ed40-bcc3-4ca4-8ea5-a1ffcaa2c18f-5742362965613439630-5-0.2" type="actor-car--8176751977842715726" depart="240.00" departLane="0" departPos="82.74" departSpeed="max" arrivalLane="0" arrivalPos="11.84">
        <route edges="gneE98 -gneE82"/>
    </vehicle>
    <vehicle id="-flow-random-route-27b2d0f8-a8d3-4af8-af75-6a133235cd03-5742362965613439630-3-0.2" type="actor-car--8176751977842715726" depart="240.00" departLane="0" departPos="12.00" departSpeed="max" arrivalLane="0" arrivalPos="2.18">
        <route edges="-gneE95 edge-north-NW edge-west-WS edge-south-SE gneE81 gneE82 gneE93 -gneE95 edge-north-NW -gneE92"/>
    </vehicle>
    <vehicle id="-flow-random-route-2d9a10d7-f487-42eb-84ff-823969854992-5742362965613439630-12-0.2" type="actor-car--8176751977842715726" depart="240.00" departLane="1" departPos="12.47" departSpeed="max" arrivalLane="0" arrivalPos="47.16">
        <route edges="edge-east-EN edge-north-NW -gneE92 -gneE91 -gneE94 -gneE93 -gneE82 -gneE81 edge-east-EN gneE95"/>
    </vehicle>
    <vehicle id="-flow-random-route-47635f12-2327-4e26-b71f-1744dbff5cbd-5742362965613439630-11-0.2" type="actor-car--8176751977842715726" depart="240.00" departLane="0" departPos="95.35" departSpeed="max" arrivalLane="0" arrivalPos="93.70">
        <route edges="-gneE91 -gneE94"/>
    </vehicle>
    <vehicle id="-flow-random-route-4c6514d4-889d-47ff-9dea-44be782f0719-5742362965613439630-8-0.2" type="actor-car--8176751977842715726" depart="240.00" departLane="0" departPos="6.90" departSpeed="max" arrivalLane="0" arrivalPos="16.24">
        <route edges="gneE81 gneE82 gneE93 -gneE95 edge-north-NW -gneE92 -gneE91 -gneE94 -gneE93 -gneE82"/>
    </vehicle>
    <vehicle id="-flow-random-route-4ec532a5-77a0-4088-868b-60dc2367f4d2-5742362965613439630-26-0.2" type="actor-car--8176751977842715726" depart="240.00" departLane="0" departPos="53.67" departSpeed="max" arrivalLane="1" arrivalPos="40.32">
        <route edges="-gneE91 -gneE94 -gneE93 -gneE82 -gneE81 edge-east-EN"/>
    </vehicle>
    <vehicle id="-flow-random-route-5201d833-9266-4d7c-a5b4-3413cc671049-5742362965613439630-15-0.2" type="actor-car--8176751977842715726" depart="240.00" departLane="0" departPos="107.50" departSpeed="max" arrivalLane="0" arrivalPos="68.96">
        <route edges="gneE96 gneE97"/>
    </vehicle>
    <vehicle id="-flow-random-route-55237da4-a96e-4e81-8f9e-54575e8ecd35-5742362965613439630-24-0.2" type="actor-car--8176751977842715726" depart="240.00" departLane="0" departPos="55.30" departSpeed="max" arrivalLane="0" arrivalPos="40.57">
        <route edges="edge-east-EN gneE95 -gneE93 -gneE82 -gneE81 edge-east-EN gneE95 gneE94 gneE91 gneE92"/>
    </vehicle>
    <vehicle id="-flow-random-route-581151d1-046b-4ec1-9f1a-030b01ffd938-5742362965613439630-9-0.2" type="actor-car--8176751977842715726" depart="240.00" departLane="0" departPos="22.28" departSpeed="max" arrivalLane="0" arrivalPos="64.11">
        <route edges="gneE82 gneE93 gneE94 gneE91 gneE92 edge-west-WS"/>
    </vehicle>
    <vehicle id="-flow-random-route-631d3092-fccb-4555-beb9-1a7dab96f684-5742362965613439630-27-0.2" type="actor-car--8176751977842715726" depart="240.00" departLane="0" departPos="49.50" departSpeed="max" arrivalLane="0" arrivalPos="81.65">
        <route edges="-gneE95 edge-north-NW -gneE92 -gneE91 -gneE94"/>
    </vehicle>
    <vehicle id="-flow-random-route-6c2ea38e-f0a3-4f67-95bb-b8f632a417b2-5742362965613439630-19-0.2" type="actor-car--8176751977842715726" depart="240.00" departLane="0" departPos="71.04" departSpeed="max" arrivalLane="0" arrivalPos="42.44">
        <route edges="gneE98 gneE93 gneE94"/>
    </vehicle>
    <vehicle id="-flow-random-route-7e24ecd1-9987-4b30-9a8e-eda23086d2f5-5742362965613439630-1-0.2" type="actor-car--8176751977842715726" depart="240.00" departLane="0" departPos="67.74" departSpeed="max" arrivalLane="0" arrivalPos="1.57">
        <route edges="gneE82 gneE93 -gneE95 edge-north-NW edge-west-WS gneE96 gneE97 gneE98 -gneE82 -gneE81"/>
    </vehicle>
    <vehicle id="-flow-random-route-8060d589-639a-4a64-8b44-cf8d2f5c0357-5742362965613439630-29-0.2" type="actor-car--8176751977842715726" depart="240.00" departLane="0" departPos="40.48" departSpeed="max" arrivalLane="0" arrivalPos="12.69">
        <route edges="gneE91 gneE92 edge-west-WS gneE96 gneE97 gneE98 gneE93 -gneE95 edge-north-NW -gneE92"/>
    </vehicle>
    <vehicle id="-flow-random-route-8a5f780f-8c66-486e-b791-1f3437f63ef3-5742362965613439630-22-0.2" type="actor-car--8176751977842715726" depart="240.00" departLane="0" departPos="30.87" departSpeed="max" arrivalLane="0" arrivalPos="48.51">
        <route edges="edge-north-NW -gneE92 -gneE91 -gneE94 -gneE95 edge-north-NW edge-west-WS gneE96 gneE97 gneE98"/>
    </vehicle>
    <vehicle id="-flow-random-route-a093f0c2-b24a-438e-a404-7bdf7c7fbff7-5742362965613439630-2-0.2" type="actor-car--8176751977842715726" depart="240.00" departLane="0" departPos="22.06" departSpeed="max" arrivalLane="0" arrivalPos="23.91">
        <route edges="-gneE82 -gneE81 edge-east-EN gneE95 gneE94 gneE91 gneE92 edge-west-WS edge-south-SE gneE81"/>
    </vehicle>
    <vehicle id="-flow-random-route-a3698224-4a74-494c-a0df-523f005a983a-5742362965613439630-4-0.2" type="actor-car--8176751977842715726" depart="240.00" departLane="0" departPos="29.83" departSpeed="max" arrivalLane="0" arrivalPos="117.42">
        <route edges="edge-south-SE gneE81 gneE82 gneE93 gneE94 gneE91 gneE92 edge-west-WS gneE96 gneE97"/>
    </vehicle>
    <vehicle id="-flow-random-route-a884e616-3526-489f-a401-2ee25292b198-5742362965613439630-18-0.2" type="actor-car--8176751977842715726" depart="240.00" departLane="0" departPos="65.31" departSpeed="max" arrivalLane="0" arrivalPos="33.60">
        <route edges="gneE95 -gneE93 -gneE82 -gneE81 edge-east-EN gneE95 gneE94 gneE91 gneE92 edge-west-WS"/>
    </vehicle>
    <vehicle id="-flow-random-route-ac7a39a9-e161-40b3-89b5-22a24e3fbff4-5742362965613439630-28-0.2" type="actor-car--8176751977842715726" depart="240.00" departLane="0" departPos="45.14" departSpeed="max" arrivalLane="0" arrivalPos="41.88">
        <route edges="gneE82 gneE93"/>
    </vehicle>
    <vehicle id="-flow-random-route-b504e2ca-86c6-4e5f-96aa-0f6429b9301a-5742362965613439630-6-0.2" type="actor-car--8176751977842715726" depart="240.00" departLane="0" departPos="50.01" departSpeed="max" arrivalLane="0" arrivalPos="27.74">
        <route edges="-gneE92 -gneE91 -gneE94 -gneE95 edge-north-NW -gneE92 -gneE91 -gneE94 -gneE93 -gneE82"/>
    </vehicle>
    <vehicle id="-flow-random-route-b7134a90-b4d3-4636-948c-16d7df027633-5742362965613439630-10-0.2" type="actor-car--8176751977842715726" depart="240.00" departLane="0" departPos="70.51" departSpeed="max" arrivalLane="0" arrivalPos="62.82">
        <route edges="-gneE94 -gneE93"/>
    </vehicle>
    <vehicle id="-flow-random-route-c3979341-4403-4afc-8b6f-889f911f31aa-5742362965613439630-16-0.2" type="actor-car--8176751977842715726" depart="240.00" departLane="0" departPos="0.84" departSpeed="max" arrivalLane="0" arrivalPos="13.03">
        <route edges="gneE82 gneE93 -gneE95 edge-north-NW -gneE92"/>
    </vehicle>
    <vehicle id="-flow-random-route-c4d7997c-c481-46a2-943a-4cdd9e2d5b87-5742362965613439630-17-0.2" type="actor-car--8176751977842715726" depart="240.00" departLane="0" departPos="25.55" departSpeed="max" arrivalLane="0" arrivalPos="81.07">
        <route edges="-gneE94 -gneE95 edge-north-NW edge-west-WS gneE96 gneE97 gneE98 gneE93 gneE94 gneE91"/>
    </vehicle>