<?xml version="1.0" encoding="UTF-8"?>

<!-- generated on Sun Aug 30 13:07:47 2020 by Eclipse SUMO duarouter Version 1.6.0
<configuration xmlns:xsi="http://www.w3.org/2001/XMLSchema-instance" xsi:noNamespaceSchemaLocation="http://sumo.dlr.de/xsd/duarouterConfiguration.xsd">

    <input>
        <net-file value="../dataset_public/merge_loop/merge_a/map.net.xml"/>
        <route-files value="/tmp/tmp98c7qy10/trips.trips.xml"/>
    </input>

    <output>
        <output-file value="../dataset_public/merge_loop/merge_a/traffic/30_patient_car.rou.xml"/>
        <alternatives-output value="../dataset_public/merge_loop/merge_a/traffic/30_patient_car.rou.alt.xml"/>
    </output>

    <processing>
        <unsorted-input value="true"/>
        <repair value="true"/>
    </processing>

    <report>
        <error-log value="/tmp/smarts/_duarouter_routing/traffic/30_patient_car.log"/>
        <no-step-log value="true"/>
    </report>

    <random_number>
        <seed value="42"/>
    </random_number>

</configuration>
-->

<routes xmlns:xsi="http://www.w3.org/2001/XMLSchema-instance" xsi:noNamespaceSchemaLocation="http://sumo.dlr.de/xsd/routes_file.xsd">
    <vType id="actor-car--4078570869387960472" minGap="2.50" speedFactor="normc(0.50,0.20,0.20,2.00)" vClass="passenger" impatience="0.50" lcCooperative="0.5" lcImpatience="0" jmDriveAfterYellowTime="1.0" accel="2.6" decel="4.5" sigma="0.5"/>
    <vehicle id="-flow-random-route-00f167e0-9b2b-4d04-83a2-d6e324c4e8bf--312697277069785238-0-0.0" type="actor-car--4078570869387960472" depart="0.00" departLane="0" departPos="110.65" departSpeed="max" arrivalLane="1" arrivalPos="10.24">
        <route edges="gneE8 gneE9 gneE2"/>
    </vehicle>
    <vehicle id="-flow-random-route-0f9ac573-4733-4cdd-9bd9-641d5953ae1b--312697277069785238-7-0.0" type="actor-car--4078570869387960472" depart="0.00" departLane="0" departPos="44.91" departSpeed="max" arrivalLane="0" arrivalPos="71.29">
        <route edges="gneE2 gneE1 gneE16"/>
    </vehicle>
    <vehicle id="-flow-random-route-100a0219-54f9-4b5d-aa71-ef0a24c6af94--312697277069785238-6-0.0" type="actor-car--4078570869387960472" depart="0.00" departLane="1" departPos="10.60" departSpeed="max" arrivalLane="1" arrivalPos="51.84">
        <route edges="gneE7.141 gneE8 gneE9 gneE2 gneE1 gneE1.12 gneE5 gneE7 gneE7.117 gneE10"/>
    </vehicle>
    <vehicle id="-flow-random-route-18be6684-d407-46b0-a634-e1c46549d814--312697277069785238-29-0.0" type="actor-car--4078570869387960472" depart="0.00" departLane="0" departPos="142.73" departSpeed="max" arrivalLane="1" arrivalPos="25.42">
        <route edges="gneE8 gneE9 gneE2"/>
    </vehicle>
    <vehicle id="-flow-random-route-258af7b1-700d-4976-86df-f8200044fc26--312697277069785238-24-0.0" type="actor-car--4078570869387960472" depart="0.00" departLane="0" departPos="0.98" departSpeed="max" arrivalLane="0" arrivalPos="31.10">
        <route edges="gneE5 gneE7 gneE7.117 gneE7.141 gneE8 gneE9 gneE2 gneE1 gneE1.12 gneE5"/>
    </vehicle>
    <vehicle id="-flow-random-route-26935aa8-285e-4fd0-9ca8-0a654d57ffda--312697277069785238-9-0.0" type="actor-car--4078570869387960472" depart="0.00" departLane="0" departPos="3.52" departSpeed="max" arrivalLane="0" arrivalPos="170.89">
        <route edges="gneE7.117 gneE7.141 gneE8"/>
    </vehicle>
    <vehicle id="-flow-random-route-30f80fd2-7094-4447-a804-71930ce0b9ca--312697277069785238-8-0.0" type="actor-car--4078570869387960472" depart="0.00" departLane="1" departPos="51.03" departSpeed="max" arrivalLane="1" arrivalPos="9.22">
        <route edges="gneE9 gneE2 gneE1"/>
    </vehicle>
    <vehicle id="-flow-random-route-3da812df-3516-4b19-9690-37d60787c5e8--312697277069785238-3-0.0" type="actor-car--4078570869387960472" depart="0.00" departLane="0" departPos="54.68" departSpeed="max" arrivalLane="0" arrivalPos="45.78">
        <route edges="gneE7.141 gneE8 gneE9 gneE2 gneE1 gneE1.12 gneE5 gneE7 gneE7.117 gneE10"/>
    </vehicle>
    <vehicle id="-flow-random-route-3efc87f4-0dad-4bbb-82b4-045e3cf262b1--312697277069785238-26-0.0" type="actor-car--4078570869387960472" depart="0.00" departLane="1" departPos="8.63" departSpeed="max" arrivalLane="0" arrivalPos="29.86">
        <route edges="gneE1 gneE1.12 gneE5 gneE7 gneE7.117 gneE7.141 gneE8 gneE9 gneE2 gneE1"/>
    </vehicle>
    <vehicle id="-flow-random-route-44837826-66f1-4053-b4ca-4783160d560d--312697277069785238-19-0.0" type="actor-car--4078570869387960472" depart="0.00" departLane="0" departPos="101.00" departSpeed="max" arrivalLane="1" arrivalPos="35.45">
        <route edges="gneE16 gneE7.117 gneE10 gneE3 gneE1"/>
    </vehicle>
    <vehicle id="-flow-random-route-4578c3f5-7ab2-476f-9b83-117d4a3a5bd2--312697277069785238-17-0.0" type="actor-car--4078570869387960472" depart="0.00" departLane="0" departPos="63.76" departSpeed="max" arrivalLane="1" arrivalPos="49.06">
        <route edges="gneE16 gneE7.117 gneE7.141 gneE8 gneE9 gneE2 gneE1 gneE1.12 gneE5 gneE7"/>
    </vehicle>
    <vehicle id="-flow-random-route-4fd892ea-06ff-4bae-acb0-b8a08d2d35ca--312697277069785238-21-0.0" type="actor-car--4078570869387960472" depart="0.00" departLane="0" departPos="22.38" departSpeed="max" arrivalLane="0" arrivalPos="75.84">
        <route edges="gneE7 gneE7.117 gneE10 gneE3 gneE1 gneE16 gneE7.117 gneE7.141 gneE8 gneE9"/>
    </vehicle>
    <vehicle id="-flow-random-route-52dd738b-cbb6-4508-9f87-2c7e344b0ab2--312697277069785238-13-0.0" type="actor-car--4078570869387960472" depart="0.00" departLane="1" departPos="32.90" departSpeed="max" arrivalLane="1" arrivalPos="94.52">
        <route edges="gneE1.12 gneE5 gneE7 gneE7.117 gneE10"/>
    </vehicle>
    <vehicle id="-flow-random-route-60da0377-b45f-42e3-b166-5a3560bd36d9--312697277069785238-11-0.0" type="actor-car--4078570869387960472" depart="0.00" departLane="1" departPos="75.70" departSpeed="max" arrivalLane="1" arrivalPos="20.39">
        <route edges="gneE9 gneE2 gneE1"/>
    </vehicle>
    <vehicle id="-flow-random-route-611917b8-e329-45a0-b068-f2091fd6f992--312697277069785238-18-0.0" type="actor-car--4078570869387960472" depart="0.00" departLane="0" departPos="32.02" departSpeed="max" arrivalLane="0" arrivalPos="63.63">
        <route edges="gneE2 gneE1 gneE16 gneE7.117 gneE10"/>
    </vehicle>
    <vehicle id="-flow-random-route-70bcc3a9-8637-46b1-aea0-a7b4d6e4e6dc--312697277069785238-27-0.0" type="actor-car--4078570869387960472" depart="0.00" departLane="0" departPos="46.08" departSpeed="max" arrivalLane="1" arrivalPos="9.68">
        <route edges="gneE10 gneE3 gneE1"/>
    </vehicle>
    <vehicle id="-flow-random-route-76798397-14bb-406a-8417-323f6bef810a--312697277069785238-1-0.0" type="actor-car--4078570869387960472" depart="0.00" departLane="0" departPos="10.39" departSpeed="max" arrivalLane="0" arrivalPos="19.22">
        <route edges="gneE3 gneE1 gneE1.12 gneE5 gneE7 gneE7.117 gneE10 gneE3 gneE1 gneE16"/>
    </vehicle>
    <vehicle id="-flow-random-route-84581884-17b6-40d4-a95d-f90534534d76--312697277069785238-5-0.0" type="actor-car--4078570869387960472" depart="0.00" departLane="0" departPos="52.27" departSpeed="max" arrivalLane="1" arrivalPos="28.92">
        <route edges="gneE5 gneE7 gneE7.117 gneE10 gneE3"/>
    </vehicle>
    <vehicle id="-flow-random-route-9d5b9d96-ac69-467c-b3d1-9b308bfe3cfb--312697277069785238-2-0.0" type="actor-car--4078570869387960472" depart="0.00" departLane="0" departPos="127.37" departSpeed="max" arrivalLane="0" arrivalPos="60.15">
        <route edges="gneE16 gneE7.117 gneE10 gneE3 gneE1 gneE16 gneE7.117 gneE7.141 gneE8 gneE9"/>
    </vehicle>
    <vehicle id="-flow-random-route-a1e632cf-5833-4f98-a132-0f251ff97ab1--312697277069785238-28-0.0" type="actor-car--4078570869387960472" depart="0.00" departLane="0" departPos="63.04" departSpeed="max" arrivalLane="0" arrivalPos="19.94">
        <route edges="gneE7.141 gneE8 gneE9 gneE2 gneE1 gneE1.12 gneE5 gneE7 gneE7.117 gneE10"/>
    </vehicle>
    <vehicle id="-flow-random-route-a89945b9-3a04-4edd-86d2-9a8dfc8c7666--312697277069785238-16-0.0" type="actor-car--4078570869387960472" depart="0.00" departLane="1" departPos="101.44" departSpeed="max" arrivalLane="0" arrivalPos="32.83">
        <route edges="gneE1.12 gneE5 gneE7 gneE7.117 gneE7.141 gneE8 gneE9 gneE2 gneE1 gneE16"/>
    </vehicle>
    <vehicle id="-flow-random-route-ade69466-f922-44a4-b133-11acef62871d--312697277069785238-15-0.0" type="actor-car--4078570869387960472" depart="0.00" departLane="1" departPos="57.92" departSpeed="max" arrivalLane="1" arrivalPos="35.13">
        <route edges="gneE7.117 gneE10 gneE3 gneE1 gneE16 gneE7.117 gneE7.141 gneE8 gneE9 gneE2"/>
    </vehicle>
    <vehicle id="-flow-random-route-b085c345-ff6a-4fb1-8c46-cc506746dd84--312697277069785238-12-0.0" type="actor-car--4078570869387960472" depart="0.00" departLane="0" departPos="25.80" departSpeed="max" arrivalLane="0" arrivalPos="131.61">
        <route edges="gneE5 gneE7 gneE7.117 gneE7.141 gneE8 gneE9 gneE2 gneE1 gneE1.12 gneE5"/>
    </vehicle>
    <vehicle id="-flow-random-route-b27a3dcc-2b20-4b67-8339-707de5c2e3b0--312697277069785238-22-0.0" type="actor-car--4078570869387960472" depart="0.00" departLane="0" departPos="28.73" departSpeed="max" arrivalLane="1" arrivalPos="79.57">
        <route edges="gneE16 gneE7.117 gneE10"/>
    </vehicle>
    <vehicle id="-flow-random-route-d8e7db0e-dcbb-42f4-99c0-e0f784b455e8--312697277069785238-4-0.0" type="actor-car--4078570869387960472" depart="0.00" departLane="0" departPos="80.76" departSpeed="max" arrivalLane="1" arrivalPos="8.62">
        <route edges="gneE9 gneE2 gneE1 gneE1.12 gneE5 gneE7 gneE7.117 gneE7.141 gneE8 gneE9"/>
    </vehicle>
    <vehicle id="-flow-random-route-df719696-8cba-493a-8e7f-94ae800d725f--312697277069785238-20-0.0" type="actor-car--4078570869387960472" depart="0.00" departLane="0" departPos="152.32" departSpeed="max" arrivalLane="1" arrivalPos="31.01">
        <route edges="gneE8 gneE9 gneE2 gneE1 gneE1.12 gneE5 gneE7 gneE7.117 gneE7.141 gneE8"/>
    </vehicle>
    <vehicle id="-flow-random-route-e73c20bf-8d9f-4037-9ae2-72e5f5989cb3--312697277069785238-10-0.0" type="actor-car--4078570869387960472" depart="0.00" departLane="1" departPos="86.24" departSpeed="max" arrivalLane="0" arrivalPos="123.11">
        <route edges="gneE1.12 gneE5 gneE7 gneE7.117 gneE7.141 gneE8 gneE9 gneE2 gneE1 gneE16"/>
    </vehicle>
    <vehicle id="-flow-random-route-ea1dd5b9-2ae0-43aa-a0cf-65a2d73875db--312697277069785238-25-0.0" type="actor-car--4078570869387960472" depart="0.00" departLane="1" departPos="41.46" departSpeed="max" arrivalLane="0" arrivalPos="12.18">
        <route edges="gneE5 gneE7 gneE7.117 gneE10 gneE3"/>
    </vehicle>
    <vehicle id="-flow-random-route-ec5c6cb7-83ed-4fec-a6fe-c5e1d413edbd--312697277069785238-14-0.0" type="actor-car--4078570869387960472" depart="0.00" departLane="1" departPos="78.44" departSpeed="max" arrivalLane="0" arrivalPos="6.23">
        <route edges="gneE5 gneE7 gneE7.117 gneE7.141 gneE8 gneE9 gneE2 gneE1 gneE1.12 gneE5"/>
    </vehicle>
    <vehicle id="-flow-random-route-eec90ac0-33c0-4ef1-90be-609cad776068--312697277069785238-23-0.0" type="actor-car--4078570869387960472" depart="0.00" departLane="1" departPos="139.88" departSpeed="max" arrivalLane="0" arrivalPos="27.74">
        <route edges="gneE7.117 gneE10 gneE3"/>
    </vehicle>
    <vehicle id="-flow-random-route-00f167e0-9b2b-4d04-83a2-d6e324c4e8bf--312697277069785238-0-0.1" type="actor-car--4078570869387960472" depart="120.00" departLane="0" departPos="110.65" departSpeed="max" arrivalLane="1" arrivalPos="10.24">
        <route edges="gneE8 gneE9 gneE2"/>
    </vehicle>
    <vehicle id="-flow-random-route-0f9ac573-4733-4cdd-9bd9-641d5953ae1b--312697277069785238-7-0.1" type="actor-car--4078570869387960472" depart="120.00" departLane="0" departPos="44.91" departSpeed="max" arrivalLane="0" arrivalPos="71.29">
        <route edges="gneE2 gneE1 gneE16"/>
    </vehicle>
    <vehicle id="-flow-random-route-100a0219-54f9-4b5d-aa71-ef0a24c6af94--312697277069785238-6-0.1" type="actor-car--4078570869387960472" depart="120.00" departLane="1" departPos="10.60" departSpeed="max" arrivalLane="1" arrivalPos="51.84">
        <route edges="gneE7.141 gneE8 gneE9 gneE2 gneE1 gneE1.12 gneE5 gneE7 gneE7.117 gneE10"/>
    </vehicle>
    <vehicle id="-flow-random-route-18be6684-d407-46b0-a634-e1c46549d814--312697277069785238-29-0.1" type="actor-car--4078570869387960472" depart="120.00" departLane="0" departPos="142.73" departSpeed="max" arrivalLane="1" arrivalPos="25.42">
        <route edges="gneE8 gneE9 gneE2"/>
    </vehicle>
    <vehicle id="-flow-random-route-258af7b1-700d-4976-86df-f8200044fc26--312697277069785238-24-0.1" type="actor-car--4078570869387960472" depart="120.00" departLane="0" departPos="0.98" departSpeed="max" arrivalLane="0" arrivalPos="31.10">
        <route edges="gneE5 gneE7 gneE7.117 gneE7.141 gneE8 gneE9 gneE2 gneE1 gneE1.12 gneE5"/>
    </vehicle>
    <vehicle id="-flow-random-route-26935aa8-285e-4fd0-9ca8-0a654d57ffda--312697277069785238-9-0.1" type="actor-car--4078570869387960472" depart="120.00" departLane="0" departPos="3.52" departSpeed="max" arrivalLane="0" arrivalPos="170.89">
        <route edges="gneE7.117 gneE7.141 gneE8"/>
    </vehicle>
    <vehicle id="-flow-random-route-30f80fd2-7094-4447-a804-71930ce0b9ca--312697277069785238-8-0.1" type="actor-car--4078570869387960472" depart="120.00" departLane="1" departPos="51.03" departSpeed="max" arrivalLane="1" arrivalPos="9.22">
        <route edges="gneE9 gneE2 gneE1"/>
    </vehicle>
    <vehicle id="-flow-random-route-3da812df-3516-4b19-9690-37d60787c5e8--312697277069785238-3-0.1" type="actor-car--4078570869387960472" depart="120.00" departLane="0" departPos="54.68" departSpeed="max" arrivalLane="0" arrivalPos="45.78">
        <route edges="gneE7.141 gneE8 gneE9 gneE2 gneE1 gneE1.12 gneE5 gneE7 gneE7.117 gneE10"/>
    </vehicle>
    <vehicle id="-flow-random-route-3efc87f4-0dad-4bbb-82b4-045e3cf262b1--312697277069785238-26-0.1" type="actor-car--4078570869387960472" depart="120.00" departLane="1" departPos="8.63" departSpeed="max" arrivalLane="0" arrivalPos="29.86">
        <route edges="gneE1 gneE1.12 gneE5 gneE7 gneE7.117 gneE7.141 gneE8 gneE9 gneE2 gneE1"/>
    </vehicle>
    <vehicle id="-flow-random-route-44837826-66f1-4053-b4ca-4783160d560d--312697277069785238-19-0.1" type="actor-car--4078570869387960472" depart="120.00" departLane="0" departPos="101.00" departSpeed="max" arrivalLane="1" arrivalPos="35.45">
        <route edges="gneE16 gneE7.117 gneE10 gneE3 gneE1"/>
    </vehicle>
    <vehicle id="-flow-random-route-4578c3f5-7ab2-476f-9b83-117d4a3a5bd2--312697277069785238-17-0.1" type="actor-car--4078570869387960472" depart="120.00" departLane="0" departPos="63.76" departSpeed="max" arrivalLane="1" arrivalPos="49.06">
        <route edges="gneE16 gneE7.117 gneE7.141 gneE8 gneE9 gneE2 gneE1 gneE1.12 gneE5 gneE7"/>
    </vehicle>
    <vehicle id="-flow-random-route-4fd892ea-06ff-4bae-acb0-b8a08d2d35ca--312697277069785238-21-0.1" type="actor-car--4078570869387960472" depart="120.00" departLane="0" departPos="22.38" departSpeed="max" arrivalLane="0" arrivalPos="75.84">
        <route edges="gneE7 gneE7.117 gneE10 gneE3 gneE1 gneE16 gneE7.117 gneE7.141 gneE8 gneE9"/>
    </vehicle>
    <vehicle id="-flow-random-route-52dd738b-cbb6-4508-9f87-2c7e344b0ab2--312697277069785238-13-0.1" type="actor-car--4078570869387960472" depart="120.00" departLane="1" departPos="32.90" departSpeed="max" arrivalLane="1" arrivalPos="94.52">
        <route edges="gneE1.12 gneE5 gneE7 gneE7.117 gneE10"/>
    </vehicle>
    <vehicle id="-flow-random-route-60da0377-b45f-42e3-b166-5a3560bd36d9--312697277069785238-11-0.1" type="actor-car--4078570869387960472" depart="120.00" departLane="1" departPos="75.70" departSpeed="max" arrivalLane="1" arrivalPos="20.39">
        <route edges="gneE9 gneE2 gneE1"/>
    </vehicle>
    <vehicle id="-flow-random-route-611917b8-e329-45a0-b068-f2091fd6f992--312697277069785238-18-0.1" type="actor-car--4078570869387960472" depart="120.00" departLane="0" departPos="32.02" departSpeed="max" arrivalLane="0" arrivalPos="63.63">
        <route edges="gneE2 gneE1 gneE16 gneE7.117 gneE10"/>
    </vehicle>
    <vehicle id="-flow-random-route-70bcc3a9-8637-46b1-aea0-a7b4d6e4e6dc--312697277069785238-27-0.1" type="actor-car--4078570869387960472" depart="120.00" departLane="0" departPos="46.08" departSpeed="max" arrivalLane="1" arrivalPos="9.68">
        <route edges="gneE10 gneE3 gneE1"/>
    </vehicle>
    <vehicle id="-flow-random-route-76798397-14bb-406a-8417-323f6bef810a--312697277069785238-1-0.1" type="actor-car--4078570869387960472" depart="120.00" departLane="0" departPos="10.39" departSpeed="max" arrivalLane="0" arrivalPos="19.22">
        <route edges="gneE3 gneE1 gneE1.12 gneE5 gneE7 gneE7.117 gneE10 gneE3 gneE1 gneE16"/>
    </vehicle>
    <vehicle id="-flow-random-route-84581884-17b6-40d4-a95d-f90534534d76--312697277069785238-5-0.1" type="actor-car--4078570869387960472" depart="120.00" departLane="0" departPos="52.27" departSpeed="max" arrivalLane="1" arrivalPos="28.92">
        <route edges="gneE5 gneE7 gneE7.117 gneE10 gneE3"/>
    </vehicle>
    <vehicle id="-flow-random-route-9d5b9d96-ac69-467c-b3d1-9b308bfe3cfb--312697277069785238-2-0.1" type="actor-car--4078570869387960472" depart="120.00" departLane="0" departPos="127.37" departSpeed="max" arrivalLane="0" arrivalPos="60.15">
        <route edges="gneE16 gneE7.117 gneE10 gneE3 gneE1 gneE16 gneE7.117 gneE7.141 gneE8 gneE9"/>
    </vehicle>
    <vehicle id="-flow-random-route-a1e632cf-5833-4f98-a132-0f251ff97ab1--312697277069785238-28-0.1" type="actor-car--4078570869387960472" depart="120.00" departLane="0" departPos="63.04" departSpeed="max" arrivalLane="0" arrivalPos="19.94">
        <route edges="gneE7.141 gneE8 gneE9 gneE2 gneE1 gneE1.12 gneE5 gneE7 gneE7.117 gneE10"/>
    </vehicle>
    <vehicle id="-flow-random-route-a89945b9-3a04-4edd-86d2-9a8dfc8c7666--312697277069785238-16-0.1" type="actor-car--4078570869387960472" depart="120.00" departLane="1" departPos="101.44" departSpeed="max" arrivalLane="0" arrivalPos="32.83">
        <route edges="gneE1.12 gneE5 gneE7 gneE7.117 gneE7.141 gneE8 gneE9 gneE2 gneE1 gneE16"/>
    </vehicle>
    <vehicle id="-flow-random-route-ade69466-f922-44a4-b133-11acef62871d--312697277069785238-15-0.1" type="actor-car--4078570869387960472" depart="120.00" departLane="1" departPos="57.92" departSpeed="max" arrivalLane="1" arrivalPos="35.13">
        <route edges="gneE7.117 gneE10 gneE3 gneE1 gneE16 gneE7.117 gneE7.141 gneE8 gneE9 gneE2"/>
    </vehicle>
    <vehicle id="-flow-random-route-b085c345-ff6a-4fb1-8c46-cc506746dd84--312697277069785238-12-0.1" type="actor-car--4078570869387960472" depart="120.00" departLane="0" departPos="25.80" departSpeed="max" arrivalLane="0" arrivalPos="131.61">
        <route edges="gneE5 gneE7 gneE7.117 gneE7.141 gneE8 gneE9 gneE2 gneE1 gneE1.12 gneE5"/>
    </vehicle>
    <vehicle id="-flow-random-route-b27a3dcc-2b20-4b67-8339-707de5c2e3b0--312697277069785238-22-0.1" type="actor-car--4078570869387960472" depart="120.00" departLane="0" departPos="28.73" departSpeed="max" arrivalLane="1" arrivalPos="79.57">
        <route edges="gneE16 gneE7.117 gneE10"/>
    </vehicle>
    <vehicle id="-flow-random-route-d8e7db0e-dcbb-42f4-99c0-e0f784b455e8--312697277069785238-4-0.1" type="actor-car--4078570869387960472" depart="120.00" departLane="0" departPos="80.76" departSpeed="max" arrivalLane="1" arrivalPos="8.62">
        <route edges="gneE9 gneE2 gneE1 gneE1.12 gneE5 gneE7 gneE7.117 gneE7.141 gneE8 gneE9"/>
    </vehicle>
    <vehicle id="-flow-random-route-df719696-8cba-493a-8e7f-94ae800d725f--312697277069785238-20-0.1" type="actor-car--4078570869387960472" depart="120.00" departLane="0" departPos="152.32" departSpeed="max" arrivalLane="1" arrivalPos="31.01">
        <route edges="gneE8 gneE9 gneE2 gneE1 gneE1.12 gneE5 gneE7 gneE7.117 gneE7.141 gneE8"/>
    </vehicle>
    <vehicle id="-flow-random-route-e73c20bf-8d9f-4037-9ae2-72e5f5989cb3--312697277069785238-10-0.1" type="actor-car--4078570869387960472" depart="120.00" departLane="1" departPos="86.24" departSpeed="max" arrivalLane="0" arrivalPos="123.11">
        <route edges="gneE1.12 gneE5 gneE7 gneE7.117 gneE7.141 gneE8 gneE9 gneE2 gneE1 gneE16"/>
    </vehicle>
    <vehicle id="-flow-random-route-ea1dd5b9-2ae0-43aa-a0cf-65a2d73875db--312697277069785238-25-0.1" type="actor-car--4078570869387960472" depart="120.00" departLane="1" departPos="41.46" departSpeed="max" arrivalLane="0" arrivalPos="12.18">
        <route edges="gneE5 gneE7 gneE7.117 gneE10 gneE3"/>
    </vehicle>
    <vehicle id="-flow-random-route-ec5c6cb7-83ed-4fec-a6fe-c5e1d413edbd--312697277069785238-14-0.1" type="actor-car--4078570869387960472" depart="120.00" departLane="1" departPos="78.44" departSpeed="max" arrivalLane="0" arrivalPos="6.23">
        <route edges="gneE5 gneE7 gneE7.117 gneE7.141 gneE8 gneE9 gneE2 gneE1 gneE1.12 gneE5"/>
    </vehicle>
    <vehicle id="-flow-random-route-eec90ac0-33c0-4ef1-90be-609cad776068--312697277069785238-23-0.1" type="actor-car--4078570869387960472" depart="120.00" departLane="1" departPos="139.88" departSpeed="max" arrivalLane="0" arrivalPos="27.74">
        <route edges="gneE7.117 gneE10 gneE3"/>
    </vehicle>
    <vehicle id="-flow-random-route-00f167e0-9b2b-4d04-83a2-d6e324c4e8bf--312697277069785238-0-0.2" type="actor-car--4078570869387960472" depart="240.00" departLane="0" departPos="110.65" departSpeed="max" arrivalLane="1" arrivalPos="10.24">
        <route edges="gneE8 gneE9 gneE2"/>
    </vehicle>
    <vehicle id="-flow-random-route-0f9ac573-4733-4cdd-9bd9-641d5953ae1b--312697277069785238-7-0.2" type="actor-car--4078570869387960472" depart="240.00" departLane="0" departPos="44.91" departSpeed="max" arrivalLane="0" arrivalPos="71.29">
        <route edges="gneE2 gneE1 gneE16"/>
    </vehicle>
    <vehicle id="-flow-random-route-100a0219-54f9-4b5d-aa71-ef0a24c6af94--312697277069785238-6-0.2" type="actor-car--4078570869387960472" depart="240.00" departLane="1" departPos="10.60" departSpeed="max" arrivalLane="1" arrivalPos="51.84">
        <route edges="gneE7.141 gneE8 gneE9 gneE2 gneE1 gneE1.12 gneE5 gneE7 gneE7.117 gneE10"/>
    </vehicle>
    <vehicle id="-flow-random-route-18be6684-d407-46b0-a634-e1c46549d814--312697277069785238-29-0.2" type="actor-car--4078570869387960472" depart="240.00" departLane="0" departPos="142.73" departSpeed="max" arrivalLane="1" arrivalPos="25.42">
        <route edges="gneE8 gneE9 gneE2"/>
    </vehicle>
    <vehicle id="-flow-random-route-258af7b1-700d-4976-86df-f8200044fc26--312697277069785238-24-0.2" type="actor-car--4078570869387960472" depart="240.00" departLane="0" departPos="0.98" departSpeed="max" arrivalLane="0" arrivalPos="31.10">
        <route edges="gneE5 gneE7 gneE7.117 gneE7.141 gneE8 gneE9 gneE2 gneE1 gneE1.12 gneE5"/>
    </vehicle>
    <vehicle id="-flow-random-route-26935aa8-285e-4fd0-9ca8-0a654d57ffda--312697277069785238-9-0.2" type="actor-car--4078570869387960472" depart="240.00" departLane="0" departPos="3.52" departSpeed="max" arrivalLane="0" arrivalPos="170.89">
        <route edges="gneE7.117 gneE7.141 gneE8"/>
    </vehicle>
    <vehicle id="-flow-random-route-30f80fd2-7094-4447-a804-71930ce0b9ca--312697277069785238-8-0.2" type="actor-car--4078570869387960472" depart="240.00" departLane="1" departPos="51.03" departSpeed="max" arrivalLane="1" arrivalPos="9.22">
        <route edges="gneE9 gneE2 gneE1"/>
    </vehicle>
    <vehicle id="-flow-random-route-3da812df-3516-4b19-9690-37d60787c5e8--312697277069785238-3-0.2" type="actor-car--4078570869387960472" depart="240.00" departLane="0" departPos="54.68" departSpeed="max" arrivalLane="0" arrivalPos="45.78">
        <route edges="gneE7.141 gneE8 gneE9 gneE2 gneE1 gneE1.12 gneE5 gneE7 gneE7.117 gneE10"/>
    </vehicle>
    <vehicle id="-flow-random-route-3efc87f4-0dad-4bbb-82b4-045e3cf262b1--312697277069785238-26-0.2" type="actor-car--4078570869387960472" depart="240.00" departLane="1" departPos="8.63" departSpeed="max" arrivalLane="0" arrivalPos="29.86">
        <route edges="gneE1 gneE1.12 gneE5 gneE7 gneE7.117 gneE7.141 gneE8 gneE9 gneE2 gneE1"/>
    </vehicle>
    <vehicle id="-flow-random-route-44837826-66f1-4053-b4ca-4783160d560d--312697277069785238-19-0.2" type="actor-car--4078570869387960472" depart="240.00" departLane="0" departPos="101.00" departSpeed="max" arrivalLane="1" arrivalPos="35.45">
        <route edges="gneE16 gneE7.117 gneE10 gneE3 gneE1"/>
    </vehicle>
    <vehicle id="-flow-random-route-4578c3f5-7ab2-476f-9b83-117d4a3a5bd2--312697277069785238-17-0.2" type="actor-car--4078570869387960472" depart="240.00" departLane="0" departPos="63.76" departSpeed="max" arrivalLane="1" arrivalPos="49.06">
        <route edges="gneE16 gneE7.117 gneE7.141 gneE8 gneE9 gneE2 gneE1 gneE1.12 gneE5 gneE7"/>
    </vehicle>
    <vehicle id="-flow-random-route-4fd892ea-06ff-4bae-acb0-b8a08d2d35ca--312697277069785238-21-0.2" type="actor-car--4078570869387960472" depart="240.00" departLane="0" departPos="22.38" departSpeed="max" arrivalLane="0" arrivalPos="75.84">
        <route edges="gneE7 gneE7.117 gneE10 gneE3 gneE1 gneE16 gneE7.117 gneE7.141 gneE8 gneE9"/>
    </vehicle>
    <vehicle id="-flow-random-route-52dd738b-cbb6-4508-9f87-2c7e344b0ab2--312697277069785238-13-0.2" type="actor-car--4078570869387960472" depart="240.00" departLane="1" departPos="32.90" departSpeed="max" arrivalLane="1" arrivalPos="94.52">
        <route edges="gneE1.12 gneE5 gneE7 gneE7.117 gneE10"/>
    </vehicle>
    <vehicle id="-flow-random-route-60da0377-b45f-42e3-b166-5a3560bd36d9--312697277069785238-11-0.2" type="actor-car--4078570869387960472" depart="240.00" departLane="1" departPos="75.70" departSpeed="max" arrivalLane="1" arrivalPos="20.39">
        <route edges="gneE9 gneE2 gneE1"/>
    </vehicle>
    <vehicle id="-flow-random-route-611917b8-e329-45a0-b068-f2091fd6f992--312697277069785238-18-0.2" type="actor-car--4078570869387960472" depart="240.00" departLane="0" departPos="32.02" departSpeed="max" arrivalLane="0" arrivalPos="63.63">
        <route edges="gneE2 gneE1 gneE16 gneE7.117 gneE10"/>
    </vehicle>
    <vehicle id="-flow-random-route-70bcc3a9-8637-46b1-aea0-a7b4d6e4e6dc--312697277069785238-27-0.2" type="actor-car--4078570869387960472" depart="240.00" departLane="0" departPos="46.08" departSpeed="max" arrivalLane="1" arrivalPos="9.68">
        <route edges="gneE10 gneE3 gneE1"/>
    </vehicle>
    <vehicle id="-flow-random-route-76798397-14bb-406a-8417-323f6bef810a--312697277069785238-1-0.2" type="actor-car--4078570869387960472" depart="240.00" departLane="0" departPos="10.39" departSpeed="max" arrivalLane="0" arrivalPos="19.22">
        <route edges="gneE3 gneE1 gneE1.12 gneE5 gneE7 gneE7.117 gneE10 gneE3 gneE1 gneE16"/>
    </vehicle>
    <vehicle id="-flow-random-route-84581884-17b6-40d4-a95d-f90534534d76--312697277069785238-5-0.2" type="actor-car--4078570869387960472" depart="240.00" departLane="0" departPos="52.27" departSpeed="max" arrivalLane="1" arrivalPos="28.92">
        <route edges="gneE5 gneE7 gneE7.117 gneE10 gneE3"/>
    </vehicle>
    <vehicle id="-flow-random-route-9d5b9d96-ac69-467c-b3d1-9b308bfe3cfb--312697277069785238-2-0.2" type="actor-car--4078570869387960472" depart="240.00" departLane="0" departPos="127.37" departSpeed="max" arrivalLane="0" arrivalPos="60.15">
        <route edges="gneE16 gneE7.117 gneE10 gneE3 gneE1 gneE16 gneE7.117 gneE7.141 gneE8 gneE9"/>
    </vehicle>
    <vehicle id="-flow-random-route-a1e632cf-5833-4f98-a132-0f251ff97ab1--312697277069785238-28-0.2" type="actor-car--4078570869387960472" depart="240.00" departLane="0" departPos="63.04" departSpeed="max" arrivalLane="0" arrivalPos="19.94">
        <route edges="gneE7.141 gneE8 gneE9 gneE2 gneE1 gneE1.12 gneE5 gneE7 gneE7.117 gneE10"/>
    </vehicle>
    <vehicle id="-flow-random-route-a89945b9-3a04-4edd-86d2-9a8dfc8c7666--312697277069785238-16-0.2" type="actor-car--4078570869387960472" depart="240.00" departLane="1" departPos="101.44" departSpeed="max" arrivalLane="0" arrivalPos="32.83">
        <route edges="gneE1.12 gneE5 gneE7 gneE7.117 gneE7.141 gneE8 gneE9 gneE2 gneE1 gneE16"/>
    </vehicle>
    <vehicle id="-flow-random-route-ade69466-f922-44a4-b133-11acef62871d--312697277069785238-15-0.2" type="actor-car--4078570869387960472" depart="240.00" departLane="1" departPos="57.92" departSpeed="max" arrivalLane="1" arrivalPos="35.13">
        <route edges="gneE7.117 gneE10 gneE3 gneE1 gneE16 gneE7.117 gneE7.141 gneE8 gneE9 gneE2"/>
    </vehicle>
    <vehicle id="-flow-random-route-b085c345-ff6a-4fb1-8c46-cc506746dd84--312697277069785238-12-0.2" type="actor-car--4078570869387960472" depart="240.00" departLane="0" departPos="25.80" departSpeed="max" arrivalLane="0" arrivalPos="131.61">
        <route edges="gneE5 gneE7 gneE7.117 gneE7.141 gneE8 gneE9 gneE2 gneE1 gneE1.12 gneE5"/>
    </vehicle>
    <vehicle id="-flow-random-route-b27a3dcc-2b20-4b67-8339-707de5c2e3b0--312697277069785238-22-0.2" type="actor-car--4078570869387960472" depart="240.00" departLane="0" departPos="28.73" departSpeed="max" arrivalLane="1" arrivalPos="79.57">
        <route edges="gneE16 gneE7.117 gneE10"/>
    </vehicle>
    <vehicle id="-flow-random-route-d8e7db0e-dcbb-42f4-99c0-e0f784b455e8--312697277069785238-4-0.2" type="actor-car--4078570869387960472" depart="240.00" departLane="0" departPos="80.76" departSpeed="max" arrivalLane="1" arrivalPos="8.62">
        <route edges="gneE9 gneE2 gneE1 gneE1.12 gneE5 gneE7 gneE7.117 gneE7.141 gneE8 gneE9"/>
    </vehicle>
    <vehicle id="-flow-random-route-df719696-8cba-493a-8e7f-94ae800d725f--312697277069785238-20-0.2" type="actor-car--4078570869387960472" depart="240.00" departLane="0" departPos="152.32" departSpeed="max" arrivalLane="1" arrivalPos="31.01">
        <route edges="gneE8 gneE9 gneE2 gneE1 gneE1.12 gneE5 gneE7 gneE7.117 gneE7.141 gneE8"/>
    </vehicle>